@<TRIPOS>MOLECULE
3E7
   58    62     1     0     0
SMALL
bcc


@<TRIPOS>ATOM
      1 C01          0.0000     0.0000     0.0000 ca         1 3E7      -0.095500
      2 C02          1.3820     0.0000     0.0000 ca         1 3E7      -0.099000
      3 C03          2.0730     0.0000     1.1970 ca         1 3E7      -0.095500
      4 C04          1.3820     0.0010     2.3940 ca         1 3E7      -0.095500
      5 C05         -0.0000     0.0010     2.3940 ca         1 3E7      -0.106300
      6 C06         -0.6910     0.0070     1.1970 ca         1 3E7      -0.095500
      7 C07         -0.7550     0.0020     3.6990 c3         1 3E7       0.078000
      8 C08         -1.2270    -1.4190     4.0150 c3         1 3E7      -0.037400
      9 C09         -1.8830    -1.4420     5.3970 c3         1 3E7      -0.015100
     10 N10         -1.9140     0.8900     3.5930 ns         1 3E7      -0.199900
     11 C11         -2.4380     1.4490     4.7010 c          1 3E7       0.605700
     12 C12         -3.6070     2.3450     4.5940 ca         1 3E7      -0.186600
     13 O13         -1.9470     1.2170     5.7900 o          1 3E7      -0.658100
     14 C14         -4.1720     2.6130     3.3400 ca         1 3E7      -0.066000
     15 C15         -5.2510     3.4380     3.2250 ca         1 3E7      -0.110000
     16 C16         -5.8080     4.0270     4.3580 ca         1 3E7      -0.115200
     17 C17         -5.2490     3.7660     5.6250 ca         1 3E7      -0.114800
     18 C18         -4.1510     2.9190     5.7400 ca         1 3E7       0.029000
     19 N19         -6.8690     4.8790     4.5520 na         1 3E7       0.190100
     20 C20         -7.0010     5.1650     5.8830 cc         1 3E7      -0.179100
     21 C21         -6.0550     4.5240     6.5860 cd         1 3E7      -0.128200
     22 S22         -7.8410     5.4730     3.3500 sy         1 3E7       1.038300
     23 O23         -8.2220     4.3590     2.5550 o          1 3E7      -0.575300
     24 O24         -8.7790     6.3340     3.9820 o          1 3E7      -0.575300
     25 C25         -6.8390     6.4970     2.3250 ca         1 3E7      -0.160500
     26 C26         -6.6050     6.1490     1.0300 ca         1 3E7       0.036000
     27 C27         -5.8150     6.9450     0.2040 ca         1 3E7      -0.147000
     28 C28         -5.2530     8.0950     0.6680 ca         1 3E7      -0.015000
     29 C29         -5.4720     8.4870     2.0000 ca         1 3E7      -0.066000
     30 C30         -6.2800     7.6800     2.8380 ca         1 3E7       0.052000
     31 C31         -4.9090     9.6680     2.5150 ca         1 3E7      -0.074000
     32 C32         -5.1440    10.0170     3.8090 ca         1 3E7      -0.104000
     33 C33         -5.9340     9.2190     4.6350 ca         1 3E7      -0.062000
     34 C34         -6.4990     8.0720     4.1700 ca         1 3E7      -0.134000
     35 H1          -0.5420     0.0020    -0.9380 ha         1 3E7       0.103500
     36 H2           1.9240    -0.0030    -0.9380 ha         1 3E7       0.103000
     37 H3           3.1570     0.0000     1.1970 ha         1 3E7       0.103500
     38 H4           1.9230    -0.0010     3.3320 ha         1 3E7       0.107000
     39 H5          -1.7750     0.0070     1.1970 ha         1 3E7       0.107000
     40 H6          -0.1040     0.3510     4.4910 h1         1 3E7       0.060700
     41 H7          -0.3780    -2.0920     4.0060 hc         1 3E7       0.016700
     42 H8          -1.9450    -1.7350     3.2680 hc         1 3E7       0.016700
     43 H9          -2.8720    -1.0050     5.3350 hc         1 3E7       0.014700
     44 H10         -1.9610    -2.4660     5.7430 hc         1 3E7       0.014700
     45 H11         -1.2790    -0.8720     6.0930 hc         1 3E7       0.014700
     46 H12         -2.2930     1.1120     2.6940 hn         1 3E7       0.186500
     47 H13         -3.7460     2.1610     2.4520 ha         1 3E7       0.101000
     48 H14         -5.6770     3.6370     2.2490 ha         1 3E7       0.116000
     49 H15         -3.6370     2.8240     6.6890 ha         1 3E7       0.127000
     50 H16         -7.7590     5.8120     6.3080 h4         1 3E7       0.162000
     51 H17         -5.9130     4.5610     7.6590 ha         1 3E7       0.133000
     52 H18         -7.0410     5.2390     0.6350 ha         1 3E7       0.126000
     53 H19         -5.6450     6.6450    -0.8230 ha         1 3E7       0.111000
     54 H20         -4.6400     8.7040     0.0150 ha         1 3E7       0.106000
     55 H21         -4.2930    10.2970     1.8840 ha         1 3E7       0.107000
     56 H22         -4.7050    10.9250     4.2040 ha         1 3E7       0.105000
     57 H23         -6.1050     9.5190     5.6620 ha         1 3E7       0.104000
     58 H24         -7.1100     7.4630     4.8240 ha         1 3E7       0.135000
@<TRIPOS>BOND
     1     1     2 ar  
     2     1     6 ar  
     3     1    35 1   
     4     2     3 ar  
     5     2    36 1   
     6     3     4 ar  
     7     3    37 1   
     8     4     5 ar  
     9     4    38 1   
    10     5     6 ar  
    11     5     7 1   
    12     6    39 1   
    13     7     8 1   
    14     7    10 1   
    15     7    40 1   
    16     8     9 1   
    17     8    41 1   
    18     8    42 1   
    19     9    43 1   
    20     9    44 1   
    21     9    45 1   
    22    10    11 1   
    23    10    46 1   
    24    11    12 1   
    25    11    13 2   
    26    12    14 ar  
    27    12    18 ar  
    28    14    15 ar  
    29    14    47 1   
    30    15    16 ar  
    31    15    48 1   
    32    16    17 ar  
    33    16    19 1   
    34    17    18 ar  
    35    17    21 1   
    36    18    49 1   
    37    19    20 1   
    38    19    22 1   
    39    20    21 2   
    40    20    50 1   
    41    21    51 1   
    42    22    23 2   
    43    22    24 2   
    44    22    25 1   
    45    25    26 ar  
    46    25    30 ar  
    47    26    27 ar  
    48    26    52 1   
    49    27    28 ar  
    50    27    53 1   
    51    28    29 ar  
    52    28    54 1   
    53    29    30 ar  
    54    29    31 ar  
    55    30    34 ar  
    56    31    32 ar  
    57    31    55 1   
    58    32    33 ar  
    59    32    56 1   
    60    33    34 ar  
    61    33    57 1   
    62    34    58 1   
@<TRIPOS>SUBSTRUCTURE
     1 3E7         1 TEMP              0 ****  ****    0 ROOT
