@<TRIPOS>MOLECULE
molecule
   58    62     1     0     0
SMALL
bcc


@<TRIPOS>ATOM
      1 C01          0.0000     0.0000     0.0000 ca         1 3E7      -0.123500
      2 C02          1.3820     0.0000     0.0000 ca         1 3E7      -0.127000
      3 C03          2.0730     0.0000     1.1970 ca         1 3E7      -0.123500
      4 C04          1.3820     0.0010     2.3940 ca         1 3E7      -0.122500
      5 C05         -0.0000     0.0010     2.3940 ca         1 3E7      -0.096300
      6 C06         -0.6910     0.0070     1.1970 ca         1 3E7      -0.122500
      7 C07         -0.7550     0.0020     3.6990 c3         1 3E7       0.164000
      8 C08         -1.2270    -1.4190     4.0150 c3         1 3E7      -0.092400
      9 C09         -1.8830    -1.4420     5.3970 c3         1 3E7      -0.092100
     10 N10         -1.9140     0.8900     3.5930 ns         1 3E7      -0.577900
     11 C11         -2.4380     1.4490     4.7010 c          1 3E7       0.679700
     12 C12         -3.6070     2.3450     4.5940 ca         1 3E7      -0.168600
     13 O13         -1.9470     1.2170     5.7900 o          1 3E7      -0.616100
     14 C14         -4.1720     2.6130     3.3400 ca         1 3E7      -0.083000
     15 C15         -5.2510     3.4380     3.2250 ca         1 3E7      -0.138000
     16 C16         -5.8080     4.0270     4.3580 ca         1 3E7      -0.010200
     17 C17         -5.2490     3.7660     5.6250 ca         1 3E7      -0.102800
     18 C18         -4.1510     2.9190     5.7400 ca         1 3E7      -0.016000
     19 N19         -6.8690     4.8790     4.5520 na         1 3E7      -0.209900
     20 C20         -7.0010     5.1650     5.8830 cc         1 3E7      -0.099100
     21 C21         -6.0550     4.5240     6.5860 cd         1 3E7      -0.152200
     22 S22         -7.8410     5.4730     3.3500 sy         1 3E7       1.412300
     23 O23         -8.2220     4.3590     2.5550 o          1 3E7      -0.614300
     24 O24         -8.7790     6.3340     3.9820 o          1 3E7      -0.614300
     25 C25         -6.8390     6.4970     2.3250 ca         1 3E7      -0.310500
     26 C26         -6.6050     6.1490     1.0300 ca         1 3E7       0.003000
     27 C27         -5.8150     6.9450     0.2040 ca         1 3E7      -0.164000
     28 C28         -5.2530     8.0950     0.6680 ca         1 3E7      -0.046000
     29 C29         -5.4720     8.4870     2.0000 ca         1 3E7      -0.058000
     30 C30         -6.2800     7.6800     2.8380 ca         1 3E7       0.048000
     31 C31         -4.9090     9.6680     2.5150 ca         1 3E7      -0.103000
     32 C32         -5.1440    10.0170     3.8090 ca         1 3E7      -0.130000
     33 C33         -5.9340     9.2190     4.6350 ca         1 3E7      -0.090000
     34 C34         -6.4990     8.0720     4.1700 ca         1 3E7      -0.145000
     35 H1          -0.5420     0.0020    -0.9380 ha         1 3E7       0.131000
     36 H2           1.9240    -0.0030    -0.9380 ha         1 3E7       0.131000
     37 H3           3.1570     0.0000     1.1970 ha         1 3E7       0.131000
     38 H4           1.9230    -0.0010     3.3320 ha         1 3E7       0.130500
     39 H5          -1.7750     0.0070     1.1970 ha         1 3E7       0.130500
     40 H6          -0.1040     0.3510     4.4910 h1         1 3E7       0.084700
     41 H7          -0.3780    -2.0920     4.0060 hc         1 3E7       0.045700
     42 H8          -1.9450    -1.7350     3.2680 hc         1 3E7       0.045700
     43 H9          -2.8720    -1.0050     5.3350 hc         1 3E7       0.041700
     44 H10         -1.9610    -2.4660     5.7430 hc         1 3E7       0.041700
     45 H11         -1.2790    -0.8720     6.0930 hc         1 3E7       0.041700
     46 H12         -2.2930     1.1120     2.6940 hn         1 3E7       0.316500
     47 H13         -3.7460     2.1610     2.4520 ha         1 3E7       0.129000
     48 H14         -5.6770     3.6370     2.2490 ha         1 3E7       0.139000
     49 H15         -3.6370     2.8240     6.6890 ha         1 3E7       0.162000
     50 H16         -7.7590     5.8120     6.3080 h4         1 3E7       0.193000
     51 H17         -5.9130     4.5610     7.6590 ha         1 3E7       0.164000
     52 H18         -7.0410     5.2390     0.6350 ha         1 3E7       0.154000
     53 H19         -5.6450     6.6450    -0.8230 ha         1 3E7       0.139000
     54 H20         -4.6400     8.7040     0.0150 ha         1 3E7       0.138000
     55 H21         -4.2930    10.2970     1.8840 ha         1 3E7       0.136000
     56 H22         -4.7050    10.9250     4.2040 ha         1 3E7       0.134000
     57 H23         -6.1050     9.5190     5.6620 ha         1 3E7       0.136000
     58 H24         -7.1100     7.4630     4.8240 ha         1 3E7       0.145000
@<TRIPOS>BOND
     1    23    22 2   
     2    31    32 ar  
     3    31    29 ar  
     4    28    29 ar  
     5    28    27 ar  
     6    32    33 ar  
     7    29    30 ar  
     8    27    26 ar  
     9    33    34 ar  
    10    24    22 2   
    11    30    34 ar  
    12    30    25 ar  
    13    26    25 ar  
    14    25    22 1   
    15    22    19 1   
    16    19    20 1   
    17    19    16 1   
    18    20    21 2   
    19    16    15 ar  
    20    16    17 ar  
    21    15    14 ar  
    22    21    17 1   
    23    17    18 ar  
    24    14    12 ar  
    25    18    12 ar  
    26    12    11 1   
    27    11    13 2   
    28    11    10 1   
    29    10     7 1   
    30     4     3 ar  
    31     4     5 ar  
    32     3     2 ar  
    33     7     5 1   
    34     7     8 1   
    35     5     6 ar  
    36     2     1 ar  
    37     8     9 1   
    38     6     1 ar  
    39     1    35 1   
    40     2    36 1   
    41     3    37 1   
    42     4    38 1   
    43     6    39 1   
    44     7    40 1   
    45     8    41 1   
    46     8    42 1   
    47     9    43 1   
    48     9    44 1   
    49     9    45 1   
    50    10    46 1   
    51    14    47 1   
    52    15    48 1   
    53    18    49 1   
    54    20    50 1   
    55    21    51 1   
    56    26    52 1   
    57    27    53 1   
    58    28    54 1   
    59    31    55 1   
    60    32    56 1   
    61    33    57 1   
    62    34    58 1   
@<TRIPOS>SUBSTRUCTURE
     1 3E7         1 TEMP              0 ****  ****    0 ROOT
