@<TRIPOS>MOLECULE
3E8
   65    69     1     0     0
SMALL
bcc


@<TRIPOS>ATOM
      1 C1          0.3500   -0.2600   -0.5150 ca        1 3E8     -0.109900
      2 C2          1.4390    0.6190   -0.5370 ca        1 3E8     -0.059000
      3 C3          0.2730   -1.2520    0.4720 ca        1 3E8     -0.096000
      4 C4          2.4410    0.5040    0.4370 ca        1 3E8     -0.027000
      5 C5          1.2730   -1.3590    1.4370 ca        1 3E8     -0.138000
      6 C6          2.3580   -0.4850    1.4270 ca        1 3E8     -0.085000
      7 C7         -0.7210   -0.1500   -1.5170 cc        1 3E8      0.362200
      8 C8         -2.1000   -0.2820   -1.0770 cc        1 3E8     -0.162600
      9 C12        -2.7490    0.0610   -3.4100 c         1 3E8      0.662700
     10 C15        -1.4840    2.8540   -5.8220 ca        1 3E8     -0.093000
     11 C16         0.6700    2.4180   -4.8060 ca        1 3E8     -0.069000
     12 C17        -1.1310    4.1920   -5.9910 ca        1 3E8     -0.146000
     13 C18         1.0180    3.7650   -4.9680 cp        1 3E8     -0.138500
     14 C19         0.1150    4.6520   -5.5670 ca        1 3E8     -0.078000
     15 N22         2.9900    5.1790   -5.2780 nb        1 3E8     -0.666500
     16 C23         4.0190    4.1890   -2.9020 ca        1 3E8      0.386700
     17 C24         4.1800    5.6160   -4.8460 ca        1 3E8      0.386700
     18 O26         5.9860    5.6540   -3.2920 os        1 3E8     -0.274900
     19 C30         7.9080    5.4570   -1.7400 cx        1 3E8     -0.132700
     20 C31         7.7130    3.2430   -2.9550 c3        1 3E8     -0.069400
     21 C32         8.8620    5.7510   -2.8780 c3        1 3E8      0.188800
     22 C33         9.2230    3.3420   -3.1840 c3        1 3E8      0.174800
     23 C36         3.5480    1.3950    0.4170 cg        1 3E8      0.251800
     24 N37         4.4540    2.1260    0.3960 n1        1 3E8     -0.384800
     25 N9         -0.4020    0.0750   -2.7930 nd        1 3E8     -0.402300
     26 N11        -1.3510    0.1590   -3.7090 n         1 3E8     -0.184800
     27 O27        -3.5880    0.1630   -4.3220 o         1 3E8     -0.617500
     28 C10        -3.0840   -0.1810   -2.0010 cd        1 3E8     -0.217200
     29 C13        -0.9450    0.5190   -5.0800 c3        1 3E8      0.149300
     30 C14        -0.5800    1.9640   -5.2350 ca        1 3E8     -0.134300
     31 C20         2.3400    4.2500   -4.4980 cp        1 3E8      0.661500
     32 C25         4.7550    5.1440   -3.6360 ca        1 3E8     -0.109500
     33 N21         2.8220    3.7400   -3.3200 nb        1 3E8     -0.666500
     34 C28         6.4290    5.3050   -1.9950 cx        1 3E8      0.071100
     35 C29         7.2890    4.0770   -1.7860 cx        1 3E8     -0.134700
     36 N34         9.7990    4.6830   -3.1830 n3        1 3E8     -0.732600
     37 H1          1.5130    1.3980   -1.3140 ha        1 3E8      0.171000
     38 H2         -0.5750   -1.9540    0.4810 ha        1 3E8      0.141000
     39 H3          1.2080   -2.1410    2.2090 ha        1 3E8      0.143000
     40 H4          3.1470   -0.5710    2.1890 ha        1 3E8      0.146000
     41 H5         -2.3010   -0.4470   -0.0090 ha        1 3E8      0.153000
     42 H6         -2.4750    2.4980   -6.1470 ha        1 3E8      0.145000
     43 H7          1.3740    1.7120   -4.3380 ha        1 3E8      0.155000
     44 H8         -1.8410    4.8910   -6.4580 ha        1 3E8      0.138000
     45 H9          0.3820    5.7110   -5.7050 ha        1 3E8      0.149000
     46 H10         4.4020    3.7660   -1.9550 h4        1 3E8      0.046100
     47 H11         4.7080    6.3600   -5.4700 h4        1 3E8      0.046100
     48 H13         6.7260    7.4690   -4.7680 ha        1 3E8      0.002500
     49 H14         7.1720    3.5840   -3.8780 hc        1 3E8      0.057700
     50 H15         7.4510    2.1670   -2.7840 hc        1 3E8      0.057700
     51 H16         8.2650    5.9320   -3.8200 h1        1 3E8      0.064200
     52 H17         9.4340    6.6930   -2.6500 h1        1 3E8      0.064200
     53 H18         9.7290    2.6890   -2.4140 h1        1 3E8      0.039200
     54 H19         9.4540    2.9070   -4.1990 h1        1 3E8      0.039200
     55 H20        10.8910    4.6160   -1.3210 h1        1 3E8      0.030700
     56 H21        11.7320    3.9680   -2.8020 h1        1 3E8      0.030700
     57 H22        11.4990    5.7630   -2.6010 h1        1 3E8      0.030700
     58 H23        -4.1550   -0.2530   -1.7670 ha        1 3E8      0.170000
     59 H24        -0.0650   -0.1220   -5.3740 h1        1 3E8      0.085700
     60 H25        -1.8170    0.2630   -5.7500 h1        1 3E8      0.085700
     61 H26         6.8750    7.0140   -5.2460 ha        1 3E8      0.002500
     62 H27         5.7030    5.6060   -1.2140 h1        1 3E8      0.094700
     63 H28         7.1360    3.5090   -0.8480 hc        1 3E8      0.098700
     64 H12         8.2050    5.8970   -0.7700 hc        1 3E8      0.088700
     65 C35        11.0300    4.7590   -2.4280 c3        1 3E8      0.157100
@<TRIPOS>BOND
     1    1    2 ar  
     2    1    3 ar  
     3    1    7 1   
     4    2    4 ar  
     5    2   37 1   
     6    3    5 ar  
     7    3   38 1   
     8    4    6 ar  
     9    4   23 1   
    10    5    6 ar  
    11    5   39 1   
    12    6   40 1   
    13    7    8 1   
    14    7   25 2   
    15    8   28 2   
    16    8   41 1   
    17    9   26 1   
    18    9   27 2   
    19    9   28 1   
    20   10   12 ar  
    21   10   30 ar  
    22   10   42 1   
    23   11   13 ar  
    24   11   30 ar  
    25   11   43 1   
    26   12   14 ar  
    27   12   44 1   
    28   13   14 ar  
    29   13   31 1   
    30   14   45 1   
    31   15   17 ar  
    32   15   31 ar  
    33   16   32 ar  
    34   16   33 ar  
    35   16   46 1   
    36   17   32 ar  
    37   17   47 1   
    38   18   32 1   
    39   18   34 1   
    40   19   21 1   
    41   19   34 1   
    42   19   35 1   
    43   19   64 1   
    44   20   22 1   
    45   20   35 1   
    46   20   49 1   
    47   20   50 1   
    48   21   36 1   
    49   21   51 1   
    50   21   52 1   
    51   22   36 1   
    52   22   53 1   
    53   22   54 1   
    54   23   24 3   
    55   25   26 1   
    56   26   29 1   
    57   28   58 1   
    58   29   30 1   
    59   29   59 1   
    60   29   60 1   
    61   31   33 ar  
    62   34   35 1   
    63   34   62 1   
    64   35   63 1   
    65   36   65 1   
    66   48   61 1   
    67   55   65 1   
    68   56   65 1   
    69   57   65 1   
@<TRIPOS>SUBSTRUCTURE
     1 3E8         1 TEMP              0 ****  ****    0 ROOT
