@<TRIPOS>MOLECULE
molecule
   65    69     1     0     0
SMALL
bcc


@<TRIPOS>ATOM
      1 C1           0.0000     0.0000     0.0000 ca         1 3E8      -0.086900
      2 C2           1.3900     0.0000     0.0000 ca         1 3E8      -0.062000
      3 C3          -0.6950     0.0050     1.2090 ca         1 3E8      -0.090000
      4 C4           2.0820     0.0000     1.2110 ca         1 3E8      -0.052000
      5 C5          -0.0070     0.0060     2.4070 ca         1 3E8      -0.126000
      6 C6           1.3740     0.0000     2.4140 ca         1 3E8      -0.117000
      7 C7          -0.7440     0.0010    -1.2840 cc         1 3E8       0.374200
      8 C8          -2.1580     0.0010    -1.2790 cc         1 3E8      -0.191600
      9 C12         -2.0240     0.0030    -3.6540 c          1 3E8       0.656700
     10 C15         -0.4920     2.0920    -6.0360 ca         1 3E8      -0.103000
     11 C16          1.5160     2.0910    -4.7320 ca         1 3E8      -0.062000
     12 C17         -0.2570     3.4020    -6.4130 ca         1 3E8      -0.158000
     13 C18          1.7640     3.4070    -5.1170 cp         1 3E8      -0.137500
     14 C19          0.8660     4.0620    -5.9580 ca         1 3E8      -0.056000
     15 N22          3.1870     5.3640    -4.9980 nb         1 3E8      -0.705000
     16 C23          4.8860     4.0740    -3.3440 ca         1 3E8       0.411200
     17 C24          4.2500     6.0240    -4.5740 ca         1 3E8       0.411200
     18 O26          6.2520     6.0350    -3.2640 os         1 3E8      -0.220900
     19 C30          9.6320     5.0550    -2.2440 c3         1 3E8      -0.129900
     20 C31          9.6650     6.0530     0.1180 c3         1 3E8      -0.129900
     21 C32         11.1770     5.7040    -2.5210 c3         1 3E8       0.254300
     22 C33         10.9660     6.2810    -0.3610 c3         1 3E8       0.254300
     23 C36          3.5140    -0.0010     1.2200 cg         1 3E8       0.236800
     24 N37          4.6500     0.0130     1.2400 n1         1 3E8      -0.359800
     25 N9          -0.0860     0.0070    -2.4200 nd         1 3E8      -0.435300
     26 N11         -0.6810     0.0080    -3.5570 n          1 3E8      -0.095800
     27 O27         -2.5610     0.0040    -4.7510 o          1 3E8      -0.633500
     28 C10         -2.8070     0.0020    -2.4790 cd         1 3E8      -0.211200
     29 C13          0.1220     0.0150    -4.7820 c3         1 3E8       0.141300
     30 C14          0.3920     1.4370    -5.1970 ca         1 3E8      -0.164300
     31 C20          2.9700     4.1120    -4.6190 cp         1 3E8       0.703500
     32 C25          5.1470     5.3880    -3.7200 ca         1 3E8      -0.122500
     33 N21          3.8020     3.4760    -3.8070 nb         1 3E8      -0.705000
     34 C28          6.9260     5.4640    -2.4140 c3         1 3E8       0.018400
     35 C29          8.9860     5.9130    -1.5060 c3         1 3E8      -0.086700
     36 N34         11.6410     5.7920    -1.4620 n3         1 3E8      -0.759600
     37 H1           1.9750    -0.0770    -0.9080 ha         1 3E8       0.161000
     38 H2          -1.7040     0.3350     1.4260 ha         1 3E8       0.146000
     39 H3          -0.2640    -0.2190     3.4350 ha         1 3E8       0.152000
     40 H4           2.2230     0.0250     3.0870 ha         1 3E8       0.154000
     41 H5          -2.5790     0.0400    -0.2820 ha         1 3E8       0.150000
     42 H6          -1.2210     1.5720    -6.6460 ha         1 3E8       0.143000
     43 H7           2.1760     1.4300    -4.1830 ha         1 3E8       0.153000
     44 H8          -1.0560     3.5720    -7.1240 ha         1 3E8       0.146000
     45 H9           1.1870     5.0020    -6.3890 ha         1 3E8       0.155000
     46 H10          5.4210     3.6360    -2.5110 h4         1 3E8       0.042600
     47 H11          4.2170     7.0890    -4.7740 h4         1 3E8       0.042600
     48 H13          9.6120     3.9750    -2.1600 hc         1 3E8       0.070950
     49 H14          9.7000     5.0270     0.4640 hc         1 3E8       0.070950
     50 H15          9.2900     6.7460     0.8610 hc         1 3E8       0.070950
     51 H16         11.5530     5.1430    -3.3680 h1         1 3E8      -0.008550
     52 H17         11.0240     6.7080    -2.9000 h1         1 3E8      -0.008550
     53 H18         11.1240     7.3520    -0.3050 h1         1 3E8      -0.008550
     54 H19         11.6130     6.3380     0.5060 h1         1 3E8      -0.008550
     55 H20         13.0950     7.2340    -1.8730 h1         1 3E8       0.046367
     56 H21         13.6220     6.3230    -0.5160 h1         1 3E8       0.046367
     57 H22         13.6810     5.6790    -2.3000 h1         1 3E8       0.046367
     58 H23         -3.8650    -0.1860    -2.3420 ha         1 3E8       0.172000
     59 H24          1.1080    -0.4320    -4.7570 h1         1 3E8       0.086200
     60 H25         -0.1890    -0.3540    -5.7520 h1         1 3E8       0.086200
     61 H26          6.8110     5.1820    -1.3740 h1         1 3E8       0.024700
     62 H27          7.4790     4.6460    -2.8600 h1         1 3E8       0.024700
     63 H28          9.2360     6.9130    -1.1720 hc         1 3E8       0.124700
     64 H12          9.0150     5.1910    -3.1240 hc         1 3E8       0.070950
     65 C35         13.1860     6.2200    -1.5020 c3         1 3E8       0.188100
@<TRIPOS>BOND
     1    19    21 1   
     2    19    35 1   
     3    21    36 1   
     4    18    32 1   
     5    18    34 1   
     6    17    32 ar  
     7    17    15 ar  
     8    32    16 ar  
     9    15    31 ar  
    10    34    35 1   
    11    16    33 ar  
    12    35    20 1   
    13    31    33 ar  
    14    31    13 1   
    15    11    13 ar  
    16    11    30 ar  
    17    13    14 ar  
    18    36    65 1   
    19    36    22 1   
    20    29    30 1   
    21    29    26 1   
    22     5     3 ar  
    23     5     6 ar  
    24    30    10 ar  
    25     3     1 ar  
    26    14    12 ar  
    27     6     4 ar  
    28    20    22 1   
    29    10    12 ar  
    30    25    26 1   
    31    25     7 2   
    32    26     9 1   
    33     1     7 1   
    34     1     2 ar  
    35     4     2 ar  
    36     4    23 1   
    37     7     8 1   
    38    23    24 3   
    39     9    27 2   
    40     9    28 1   
    41     8    28 2   
    42     2    37 1   
    43     3    38 1   
    44     5    39 1   
    45     6    40 1   
    46     8    41 1   
    47    10    42 1   
    48    11    43 1   
    49    12    44 1   
    50    14    45 1   
    51    16    46 1   
    52    17    47 1   
    53    19    64 1   
    54    19    48 1   
    55    20    49 1   
    56    20    50 1   
    57    21    51 1   
    58    21    52 1   
    59    22    53 1   
    60    22    54 1   
    61    65    55 1   
    62    65    56 1   
    63    65    57 1   
    64    28    58 1   
    65    29    59 1   
    66    29    60 1   
    67    34    61 1   
    68    34    62 1   
    69    35    63 1   
@<TRIPOS>SUBSTRUCTURE
     1 3E8         1 TEMP              0 ****  ****    0 ROOT
