@<TRIPOS>MOLECULE
molecule
   51    50     1     0     0
SMALL
bcc


@<TRIPOS>ATOM
      1 C1           0.0000     0.0000     0.0000 c3         1 3E9       0.233400
      2 O1           1.4290     0.0000     0.0000 os         1 3E9      -0.603200
      3 C2          -0.5100     0.0000     1.4430 c3         1 3E9      -0.090400
      4 C3          -2.0390     0.0010     1.4420 c3         1 3E9      -0.074700
      5 C4          -2.5510    -1.3050     0.8310 c3         1 3E9      -0.094100
      6 C5          -2.5490     0.1270     2.8790 c3         1 3E9      -0.103400
      7 C6          -4.0750     0.2520     2.8700 c3         1 3E9      -0.086200
      8 C7          -4.5770     0.3760     4.2850 c2         1 3E9      -0.550200
      9 C8          -5.2700     1.4280     4.6450 c2         1 3E9      -0.014400
     10 C10         -5.4530     2.5750     3.6850 c3         1 3E9      -0.116900
     11 C9          -5.8870     1.4900     6.0190 c3         1 3E9      -0.058200
     12 C11         -4.9480     2.2400     6.9660 c3         1 3E9      -0.066200
     13 C12         -5.5640     2.3020     8.3400 c2         1 3E9      -0.548200
     14 C13         -4.9280     1.7950     9.3660 c2         1 3E9      -0.070400
     15 C14         -3.6440     1.0340     9.1560 c3         1 3E9      -0.068900
     16 C15         -5.4800     1.9720    10.7570 c3         1 3E9      -0.068900
     17 PA           2.3060    -0.0010    -1.3500 p5         1 3E9       1.435800
     18 O1A          2.0610     1.3760    -2.1500 o          1 3E9      -0.861000
     19 O2A          1.9020    -1.1430    -2.2010 o          1 3E9      -0.861000
     20 O3A          3.8670    -0.1340    -0.9770 os         1 3E9      -0.716800
     21 PB           5.1910    -0.4920    -1.8180 p5         1 3E9       1.318900
     22 O1B          6.4950    -0.0850    -0.9680 o          1 3E9      -0.845167
     23 O2B          5.2220    -2.0730    -2.1240 o          1 3E9      -0.845167
     24 O3B          5.1820     0.2560    -3.0960 o          1 3E9      -0.845167
     25 H1          -0.3610    -0.8840    -0.5110 h1         1 3E9       0.017200
     26 H2          -0.3610     0.8850    -0.5110 h1         1 3E9       0.017200
     27 H3          -0.1490     0.8840     1.9530 hc         1 3E9       0.041700
     28 H4          -0.1500    -0.8850     1.9530 hc         1 3E9       0.041700
     29 H5          -2.4000     0.8380     0.8570 hc         1 3E9       0.043700
     30 H6          -3.1520    -1.0840    -0.0420 hc         1 3E9       0.034367
     31 H7          -3.1530    -1.8330     1.5600 hc         1 3E9       0.034367
     32 H8          -1.7090    -1.9230     0.5430 hc         1 3E9       0.034367
     33 H9          -2.1170     1.0070     3.3400 hc         1 3E9       0.049200
     34 H10         -2.2630    -0.7540     3.4420 hc         1 3E9       0.049200
     35 H11         -4.3610     1.1320     2.3070 hc         1 3E9       0.050700
     36 H12         -4.5070    -0.6280     2.4100 hc         1 3E9       0.050700
     37 H13         -3.6630     0.8590     3.9610 ha         1 3E9       0.342000
     38 H14         -6.0480     3.3480     4.1560 hc         1 3E9       0.040367
     39 H15         -4.4850     2.9780     3.4150 hc         1 3E9       0.040367
     40 H16         -5.9590     2.2230     2.7940 hc         1 3E9       0.040367
     41 H17         -6.0450     0.4840     6.3890 hc         1 3E9       0.052700
     42 H18         -6.8360     2.0090     5.9650 hc         1 3E9       0.052700
     43 H19         -4.7900     3.2460     6.5950 hc         1 3E9       0.045700
     44 H20         -3.9980     1.7210     7.0180 hc         1 3E9       0.045700
     45 H21         -5.6460     1.4190     7.7180 ha         1 3E9       0.288000
     46 H22         -3.8280     0.1860     8.5070 hc         1 3E9       0.030700
     47 H23         -3.2720     0.6830    10.1110 hc         1 3E9       0.030700
     48 H24         -2.9080     1.6850     8.6990 hc         1 3E9       0.030700
     49 H25         -4.7570     2.4960    11.3690 hc         1 3E9       0.030700
     50 H26         -5.6840     1.0000    11.1910 hc         1 3E9       0.030700
     51 H27         -6.3980     2.5460    10.7110 hc         1 3E9       0.030700
@<TRIPOS>BOND
     1    19    17 1
     2    24    21 1
     3    18    17 1
     4    17    20 1
     5    17     2 1
     6    21    22 1
     7    21    20 1
     8    21    23 1
     9     2     1 1
    10     3     1 1
    11     3     4 1
    12     5     4 1
    13     4     6 1
    14     6     7 1
    15     7     8 1
    16    16    14 1
    17    15    14 1
    18     8     9 2
    19    14    13 2
    20     9    10 1
    21     9    11 1
    22    13    12 1
    23    12    11 1
    24     1    25 1
    25     1    26 1
    26     3    27 1
    27     3    28 1
    28     4    29 1
    29     5    30 1
    30     5    31 1
    31     5    32 1
    32     6    33 1
    33     6    34 1
    34     7    35 1
    35     7    36 1
    36     8    37 1
    37    10    38 1
    38    10    39 1
    39    10    40 1
    40    11    41 1
    41    11    42 1
    42    12    43 1
    43    12    44 1
    44    13    45 1
    45    15    46 1
    46    15    47 1
    47    15    48 1
    48    16    49 1
    49    16    50 1
    50    16    51 1
@<TRIPOS>SUBSTRUCTURE
     1 3E9         1 TEMP              0 ****  ****    0 ROOT
