@<TRIPOS>MOLECULE
3EA
   56    59     1     0     0
SMALL
bcc


@<TRIPOS>ATOM
      1 C13        -0.1150    0.2740    1.4100 c3        1 3EA     -0.092100
      2 C12         1.2780   -0.0590    0.9420 c3        1 3EA     -0.078400
      3 C11         2.3100    0.3110    1.9920 c3        1 3EA     -0.027100
      4 C10         3.6860   -0.0440    1.5670 ca        1 3EA     -0.089300
      5 C5          4.1010   -1.3560    1.3890 ca        1 3EA      0.071100
      6 O4          3.3390   -2.5410    1.5560 os        1 3EA      0.003400
      7 N3          4.0980   -3.5890    1.2960 nc        1 3EA     -0.335200
      8 C2          5.3370   -3.2010    0.9580 cd        1 3EA      0.281900
      9 C1          6.4510   -4.1670    0.5990 c3        1 3EA      0.647600
     10 F34         6.1730   -4.9600   -0.4850 f         1 3EA     -0.226300
     11 F33         7.6410   -3.5600    0.2850 f         1 3EA     -0.226300
     12 F32         6.7690   -5.0480    1.6020 f         1 3EA     -0.226300
     13 C6          5.4200   -1.7420    0.9960 ca        1 3EA     -0.235900
     14 C7          6.3760   -0.7600    0.7670 ca        1 3EA     -0.025000
     15 C8          6.0020    0.5690    0.9340 ca        1 3EA     -0.216000
     16 C9          4.6930    0.9260    1.3250 ca        1 3EA      0.177100
     17 O14         4.2860    2.2260    1.5040 os        1 3EA     -0.319900
     18 C15         5.2720    3.2480    1.2800 c3        1 3EA      0.127400
     19 C16         4.5630    4.5620    1.5510 c3        1 3EA     -0.092400
     20 C17         5.5340    5.7100    1.3330 c3        1 3EA      0.133400
     21 O18         4.7970    6.9090    1.5940 os        1 3EA     -0.348900
     22 C19         5.5950    8.0510    1.4710 ca        1 3EA      0.031100
     23 C20         5.4560    8.8360    0.3300 ca        1 3EA     -0.103000
     24 C24         6.4470    8.4050    2.5390 ca        1 3EA     -0.161000
     25 C23         7.1860    9.5750    2.4900 ca        1 3EA     -0.117000
     26 C22         7.0680   10.3930    1.3540 ca        1 3EA     -0.073200
     27 C21         6.1860   10.0220    0.2570 ca        1 3EA     -0.079800
     28 C25         6.3070   11.0620   -0.7270 cc        1 3EA     -0.268200
     29 C26         7.2210   11.9980   -0.2290 cd        1 3EA     -0.046100
     30 N27         7.6870   11.6020    1.0220 na        1 3EA     -0.016400
     31 C28         8.5990   12.3160    1.8700 c3        1 3EA     -0.111700
     32 C29         9.6070   13.2860    1.1730 c         1 3EA      0.920600
     33 O31        10.7360   13.3580    1.7260 o         1 3EA     -0.821300
     34 O30         9.2380   13.9540    0.1710 o         1 3EA     -0.821300
     35 H131       -0.8610   -0.0010    0.6250 hc        1 3EA      0.033700
     36 H132       -0.2100    1.3670    1.6190 hc        1 3EA      0.033700
     37 H133       -0.3630   -0.2850    2.3440 hc        1 3EA      0.033700
     38 H121        1.4990    0.4900   -0.0100 hc        1 3EA      0.046200
     39 H122        1.3540   -1.1580    0.7210 hc        1 3EA      0.046200
     40 H111        2.2470    1.4120    2.2070 hc        1 3EA      0.064700
     41 H112        2.0760   -0.2330    2.9490 hc        1 3EA      0.064700
     42 H7          7.3990   -1.0290    0.4630 ha        1 3EA      0.158000
     43 H8          6.7540    1.3520    0.7540 ha        1 3EA      0.153000
     44 H151        5.6310    3.1920    0.2190 h1        1 3EA      0.045200
     45 H152        6.1310    3.0980    1.9850 h1        1 3EA      0.045200
     46 H161        4.1760    4.5820    2.6020 hc        1 3EA      0.070200
     47 H162        3.6810    4.6730    0.8690 hc        1 3EA      0.070200
     48 H171        5.9120    5.7250    0.2770 h1        1 3EA      0.032200
     49 H172        6.4050    5.6420    2.0370 h1        1 3EA      0.032200
     50 H20         4.7830    8.5340   -0.4820 ha        1 3EA      0.130000
     51 H24         6.5090    7.7430    3.4130 ha        1 3EA      0.121000
     52 H23         7.8510    9.8590    3.3170 ha        1 3EA      0.134000
     53 H25         5.7880   11.1090   -1.6770 ha        1 3EA      0.141000
     54 H26         7.6070   12.9300   -0.6720 h4        1 3EA      0.225000
     55 H281        9.1940   11.5630    2.4570 h1        1 3EA      0.042200
     56 H282        8.0010   12.9390    2.5940 h1        1 3EA      0.042200
@<TRIPOS>BOND
     1    1    2 1
     2    1   35 1
     3    1   36 1
     4    1   37 1
     5    2    3 1
     6    2   38 1
     7    2   39 1
     8    3    4 1
     9    3   40 1
    10    3   41 1
    11    4    5 ar
    12    4   16 ar
    13    5    6 1
    14    5   13 ar
    15    6    7 1
    16    7    8 2
    17    8    9 1
    18    8   13 1
    19    9   10 1
    20    9   11 1
    21    9   12 1
    22   13   14 ar
    23   14   15 ar
    24   14   42 1
    25   15   16 ar
    26   15   43 1
    27   16   17 1
    28   17   18 1
    29   18   19 1
    30   18   44 1
    31   18   45 1
    32   19   20 1
    33   19   46 1
    34   19   47 1
    35   20   21 1
    36   20   48 1
    37   20   49 1
    38   21   22 1
    39   22   23 ar
    40   22   24 ar
    41   23   27 ar
    42   23   50 1
    43   24   25 ar
    44   24   51 1
    45   25   26 ar
    46   25   52 1
    47   26   27 ar
    48   26   30 1
    49   27   28 1
    50   28   29 2
    51   28   53 1
    52   29   30 1
    53   29   54 1
    54   30   31 1
    55   31   32 1
    56   31   55 1
    57   31   56 1
    58   32   33 1
    59   32   34 1
@<TRIPOS>SUBSTRUCTURE
     1 3EA         1 TEMP              0 ****  ****    0 ROOT
