@<TRIPOS>MOLECULE
molecule
   22    22     1     0     0
SMALL
bcc


@<TRIPOS>ATOM
      1 C            0.0000     0.0000     0.0000 c          1 3EB       0.891600
      2 OXT          1.3420     0.0000     0.0000 o          1 3EB      -0.872300
      3 CA          -0.7540     0.0000     1.3050 c3         1 3EB      -0.175400
      4 OAB         -4.1270    -3.5260     4.2530 o          1 3EB      -0.855300
      5 OAD         -5.1030    -2.4670     5.9420 o          1 3EB      -0.855300
      6 CAE         -3.3570     1.1980     2.9270 ca         1 3EB      -0.154000
      7 CAF         -4.0500     1.2070     4.1250 ca         1 3EB      -0.176000
      8 CAG         -3.0120     0.0000     2.3290 ca         1 3EB      -0.094300
      9 CAH         -4.4000     0.0180     4.7310 ca         1 3EB      -0.116000
     10 CAM         -3.3570    -1.1960     2.9240 ca         1 3EB      -0.102000
     11 CAN         -4.0550    -1.1950     4.1330 ca         1 3EB      -0.115600
     12 O           -0.6040     0.0060    -1.0470 o          1 3EB      -0.872300
     13 C2          -2.2580     0.0000     1.0240 c3         1 3EB      -0.020100
     14 HA1C        -0.4920     0.8840     1.8730 hc         1 3EB       0.034200
     15 HA2C        -0.4930    -0.8850     1.8730 hc         1 3EB       0.034200
     16 H21C        -2.5190    -0.8840     0.4550 hc         1 3EB       0.043200
     17 H22C        -2.5190     0.8850     0.4560 hc         1 3EB       0.043200
     18 HAE         -3.0840     2.1340     2.4550 ha         1 3EB       0.103000
     19 HAF         -4.3170     2.1500     4.5880 ha         1 3EB       0.087000
     20 HAH         -4.9430     0.0260     5.6690 ha         1 3EB       0.136000
     21 HAM         -3.0860    -2.1340     2.4540 ha         1 3EB       0.148000
     22 CAL         -4.4280    -2.4720     4.7760 c          1 3EB       0.888200
@<TRIPOS>BOND
     1     1     2 1   
     2     1     3 1   
     3     1    12 1   
     4     3    13 1   
     5     4    22 1   
     6     5    22 1   
     7     6     7 ar  
     8     6     8 ar  
     9     7     9 ar  
    10     8    10 ar  
    11     8    13 1   
    12     9    11 ar  
    13    22    11 1   
    14    10    11 ar  
    15     3    14 1   
    16     3    15 1   
    17    13    16 1   
    18    13    17 1   
    19     6    18 1   
    20     7    19 1   
    21     9    20 1   
    22    10    21 1   
@<TRIPOS>SUBSTRUCTURE
     1 3EB         1 TEMP              0 ****  ****    0 ROOT
