@<TRIPOS>MOLECULE
3EB
   22    21     1     0     0
SMALL
bcc


@<TRIPOS>ATOM
      1 C           0.3360   -1.3310   -0.0180 c         1 3EB      0.903600
      2 OXT         1.1580   -2.2190    0.3570 o         1 3EB     -0.863800
      3 CA         -0.5360   -0.6290    1.0340 c3        1 3EB     -0.182400
      4 OAB        -3.3510    3.4280    7.6230 o         1 3EB     -0.828800
      5 OAD        -1.7170    2.6440    8.9230 o         1 3EB     -0.828800
      6 CAE        -1.2120   -0.6290    4.1360 ce        1 3EB     -0.132000
      7 CAF        -1.8210   -0.5150    5.3300 cf        1 3EB     -0.006700
      8 CAG        -0.5520    0.3850    3.3340 ce        1 3EB     -0.072200
      9 CAH        -1.9920    0.6060    6.1480 ch        1 3EB     -0.269300
     10 CAM        -0.6640    1.7020    3.5600 c2        1 3EB     -0.232000
     11 CAN        -2.1800    1.5150    6.9150 cg        1 3EB     -0.075200
     12 O           0.1770   -1.0090   -1.2330 o         1 3EB     -0.863800
     13 C2          0.2850   -0.1380    2.2060 c3        1 3EB     -0.035200
     14 HA1C       -0.1570    2.4420    2.9280 ha        1 3EB      0.112000
     15 HA2C       -1.3030   -1.3640    1.3880 hc        1 3EB      0.022700
     16 H21C       -1.0760    0.2260    0.5560 hc        1 3EB      0.022700
     17 H22C        0.9830    0.6650    1.8490 hc        1 3EB      0.043700
     18 HAE         0.9220   -0.9890    2.5730 hc        1 3EB      0.043700
     19 HAF        -1.1860   -1.6360    3.6740 ha        1 3EB      0.117000
     20 HAH        -2.2620   -1.4350    5.7680 ha        1 3EB      0.098000
     21 HAM        -1.2630    2.1140    4.3840 ha        1 3EB      0.112000
     22 CAL        -2.4280    2.6010    7.8780 c         1 3EB      0.911800
@<TRIPOS>BOND
     1    1    2 1   
     2    1    3 1   
     3    1   12 1   
     4    3   13 1   
     5    3   15 1   
     6    3   16 1   
     7    4   22 1   
     8    5   22 1   
     9    6    7 2   
    10    6    8 1   
    11    6   19 1   
    12    7    9 1   
    13    7   20 1   
    14    8   10 2   
    15    8   13 1   
    16    9   11 3   
    17   10   14 1   
    18   10   21 1   
    19   11   22 1   
    20   13   17 1   
    21   13   18 1   
@<TRIPOS>SUBSTRUCTURE
     1 3EB         1 TEMP              0 ****  ****    0 ROOT
