@<TRIPOS>MOLECULE
3EC
   24    24     1     0     0
SMALL
bcc


@<TRIPOS>ATOM
      1 OAI        -0.1370    2.4490    3.6540 o         1 3EC     -0.613100
      2 CAL         0.4160    1.8730    2.7040 c         1 3EC      0.535400
      3 CAK         1.5160    0.9490    2.9050 cc        1 3EC      0.104200
      4 OAJ         1.8140    0.6200    4.2440 os        1 3EC     -0.420800
      5 CAH         2.4000    0.3030    2.0570 cd        1 3EC     -0.122300
      6 CAG         3.3020   -0.4560    2.8880 cd        1 3EC     -0.237300
      7 CAF         2.9170   -0.2430    4.2020 cc        1 3EC      0.296000
      8 CAE         3.3970   -0.7670    5.4820 c3        1 3EC     -0.090600
      9 SAD         3.9620    0.4280    6.6500 ss        1 3EC     -0.167200
     10 CAC         2.4940    1.0930    7.3520 c3        1 3EC     -0.082300
     11 CAB         2.1080    2.4050    6.6830 c3        1 3EC      0.108800
     12 NAA         0.6770    2.4780    6.2770 n4        1 3EC     -0.837600
     13 H1          0.1100    2.0380    1.6480 h4        1 3EC      0.060200
     14 H2          2.4280    0.3490    0.9670 ha        1 3EC      0.191000
     15 H3          4.1250   -1.0750    2.5330 ha        1 3EC      0.193000
     16 H4          2.6060   -1.4210    5.9370 h1        1 3EC      0.118700
     17 H5          4.3030   -1.4100    5.2930 h1        1 3EC      0.118700
     18 H6          1.6660    0.3410    7.3340 h1        1 3EC      0.106200
     19 H7          2.7410    1.2880    8.4310 h1        1 3EC      0.106200
     20 H8          2.3110    3.2710    7.3770 hx        1 3EC      0.117200
     21 H9          2.7270    2.5430    5.7430 hx        1 3EC      0.117200
     22 H10         0.4660    1.7380    5.5840 hn        1 3EC      0.466467
     23 H11         0.4820    3.3760    5.8190 hn        1 3EC      0.466467
     24 HAA3        0.0610    2.3660    7.0830 hn        1 3EC      0.466467
@<TRIPOS>BOND
     1    1    2 2   
     2    2    3 1   
     3    2   13 1   
     4    3    4 1   
     5    3    5 2   
     6    4    7 1   
     7    5    6 1   
     8    5   14 1   
     9    6    7 2   
    10    6   15 1   
    11    7    8 1   
    12    8    9 1   
    13    8   16 1   
    14    8   17 1   
    15    9   10 1   
    16   10   11 1   
    17   10   18 1   
    18   10   19 1   
    19   11   12 1   
    20   11   20 1   
    21   11   21 1   
    22   12   22 1   
    23   12   23 1   
    24   12   24 1   
@<TRIPOS>SUBSTRUCTURE
     1 3EC         1 TEMP              0 ****  ****    0 ROOT
