@<TRIPOS>MOLECULE
molecule
   23    23     1     0     0
SMALL
bcc


@<TRIPOS>ATOM
      1 O1           0.0000     0.0000     0.0000 o          1 3EE      -0.477100
      2 C2           1.2130     0.0000     0.0000 c          1 3EE       0.554700
      3 C3           1.9670     0.0000     1.3050 c3         1 3EE      -0.280400
      4 C9           0.9880    -0.0000     2.4510 c          1 3EE       0.462100
      5 O2          -0.2000     0.0000     2.2300 o          1 3EE      -0.503100
      6 C10          1.4850    -0.0000     3.8560 c          1 3EE       0.808600
      7 O3           0.6100    -0.0010     4.8790 o          1 3EE      -0.815800
      8 O4           2.6770    -0.0010     4.0770 o          1 3EE      -0.815800
      9 C1           1.9460    -0.0070    -1.2710 ca         1 3EE      -0.160600
     10 C4           1.2520    -0.1270    -2.4880 ca         1 3EE       0.218600
     11 N           -0.1300    -0.2430    -2.4950 nv         1 3EE      -0.973200
     12 C6           1.9600    -0.1320    -3.6840 ca         1 3EE      -0.172000
     13 C8           3.3340    -0.0170    -3.6740 ca         1 3EE      -0.118000
     14 C7           4.0220     0.1020    -2.4770 ca         1 3EE      -0.178000
     15 C5           3.3400     0.1150    -1.2800 ca         1 3EE      -0.087000
     16 H1           2.5900     0.8850     1.3630 hc         1 3EE       0.081200
     17 H2           2.5900    -0.8840     1.3630 hc         1 3EE       0.081200
     18 H4          -0.7000     0.5770    -2.5640 hn         1 3EE       0.432800
     19 H5          -0.5570    -1.1480    -2.4800 hn         1 3EE       0.432800
     20 H6           1.4320    -0.2260    -4.6250 ha         1 3EE       0.126000
     21 H7           3.8800    -0.0200    -4.6090 ha         1 3EE       0.114000
     22 H8           5.1020     0.1860    -2.4820 ha         1 3EE       0.121000
     23 H9           4.1310     0.2580    -0.5530 ha         1 3EE       0.146000
@<TRIPOS>BOND
     1     1     2 2   
     2     2     9 1   
     3     2     3 1   
     4     9    15 ar  
     5     9    10 ar  
     6    15    14 ar  
     7    14    13 ar  
     8    10    11 1   
     9    10    12 ar  
    10     3     4 1   
    11    13    12 ar  
    12     8     6 1   
    13     4     6 1   
    14     4     5 2   
    15     6     7 1   
    16     3    16 1   
    17     3    17 1   
    18    11    18 1   
    19    11    19 1   
    20    12    20 1   
    21    13    21 1   
    22    14    22 1   
    23    15    23 1   
@<TRIPOS>SUBSTRUCTURE
     1 3EE         1 TEMP              0 ****  ****    0 ROOT
