@<TRIPOS>MOLECULE
3EF
   89    88     1     0     0
SMALL
bcc


@<TRIPOS>ATOM
      1 OAB         0.4120   -2.6260   -3.1480 o         1 3EF     -0.361000
      2 CAH         4.2140    0.4780   -3.1790 c3        1 3EF     -0.145000
      3 CAK         3.5280    0.6270   -4.5110 c2        1 3EF     -0.125000
      4 CAL         3.3480    1.0750   -2.1080 c2        1 3EF     -0.078000
      5 CAQ         2.1910    0.7730   -4.6500 c2        1 3EF     -0.153000
      6 CAR         2.0550    0.8790   -2.3390 c1        1 3EF     -0.228000
      7 CBB         0.0200   -0.0180   -3.5840 c3        1 3EF      0.031000
      8 OBJ        -0.4160   -0.6830   -2.3920 os        1 3EF     -0.287000
      9 CBM        -0.1580   -2.0120   -2.2490 c2        1 3EF      0.258000
     10 CBP         1.3680    0.5730   -3.4420 c2        1 3EF     -0.053000
     11 OAD         2.5000    1.0510    3.5800 o         1 3EF     -1.070500
     12 PBY         1.6840    2.2160    3.2900 p3        1 3EF      2.642000
     13 OAG         2.1300    3.5060    2.7770 o         1 3EF     -1.070500
     14 CBX         0.6880    0.4970    0.5360 c2        1 3EF     -0.007000
     15 NBI         0.9550    1.5520    1.2070 n2        1 3EF     -0.430000
     16 CBE         2.8010   -2.1790    3.2020 c2        1 3EF     -0.158000
     17 CBQ         2.1630   -2.6000    2.1560 c1        1 3EF     -0.124000
     18 CAS         3.3160   -3.7470   -2.1170 c2        1 3EF     -0.553000
     19 CAM         4.1890   -2.8350   -2.4320 c1        1 3EF      0.145000
     20 CAI        -1.0220   -3.4790    0.9550 c1        1 3EF     -0.231000
     21 CAN         0.1540   -3.2590    1.0240 c1        1 3EF     -0.119000
     22 CAT         1.5360   -3.0130    1.0820 c2        1 3EF     -0.085000
     23 CAJ         3.6200    9.4420    4.4370 ca        1 3EF     -0.111000
     24 CAO         3.0200    9.4610    5.6960 ca        1 3EF     -0.137000
     25 CAP         3.5000    8.3150    3.6230 ca        1 3EF     -0.137000
     26 CAU         2.2990    8.3560    6.1440 ca        1 3EF     -0.096000
     27 CAV         2.7760    7.2070    4.0600 ca        1 3EF     -0.096000
     28 CBA         0.5380    5.2670    4.8110 c3        1 3EF     -0.170000
     29 CBC        -1.2580    3.4860    5.6910 cx        1 3EF     -0.167000
     30 NBG         1.3870    5.5530    6.9880 n2        1 3EF     -0.015000
     31 OBK         0.6180    4.4740    7.0400 os        1 3EF     -0.188000
     32 CBN         0.2780    1.5750    6.3430 c2        1 3EF      0.328000
     33 CBS         0.0740    4.1480    5.7240 cx        1 3EF     -0.017000
     34 CBT         2.1690    7.2270    5.3240 ca        1 3EF     -0.054000
     35 CBU         1.4110    6.0670    5.7700 c2        1 3EF     -0.052000
     36 CBV        -0.0140    2.6770    5.3400 cx        1 3EF     -0.121000
     37 N           1.3360    1.7200    7.1970 n         1 3EF     -0.412000
     38 CA         -1.0610    4.9520   10.9860 c2        1 3EF     -0.244000
     39 C          -2.1640    4.7230   10.0450 c2        1 3EF      0.333000
     40 O          -1.9230    4.4590    8.7250 oh        1 3EF     -0.306000
     41 CB          0.1470    5.4140   10.6320 c2        1 3EF     -0.045000
     42 CG          1.2460    5.6700   11.5450 ca        1 3EF     -0.109000
     43 CD1         1.0750    5.6990   12.9360 ca        1 3EF     -0.066000
     44 CD2         2.5260    5.9030   11.0090 ca        1 3EF     -0.066000
     45 CE1         2.1520    5.9470   13.7810 ca        1 3EF     -0.193000
     46 CE2         3.6130    6.1490   11.8350 ca        1 3EF     -0.193000
     47 CZ          3.4220    6.1700   13.2290 ca        1 3EF      0.098000
     48 OH          4.5330    6.4190   13.9960 oh        1 3EF     -0.246000
     49 OXT        -3.3660    4.7250   10.3250 o         1 3EF     -0.308000
     50 HAH         5.1870    1.0390   -3.1880 hc        1 3EF      0.138000
     51 HAK         1.6950    0.9200   -5.6170 ha        1 3EF      0.140000
     52 HAL         4.4530   -0.6130   -3.0090 hc        1 3EF      0.138000
     53 HAQ         4.1930    0.5830   -5.3860 ha        1 3EF      0.139000
     54 HAR         3.7910    1.6810   -1.3130 ha        1 3EF      0.155000
     55 HBB        -0.7460    0.7980   -3.7190 h1        1 3EF      0.119000
     56 HBBA       -0.0120   -0.7260   -4.4560 h1        1 3EF      0.119000
     57 HBX         0.5250    0.4580   -0.5640 h4        1 3EF      0.151000
     58 HNBI       -0.5290   -2.3850   -1.2710 h5        1 3EF      0.190000
     59 HBE         0.6290   -0.4770    1.0680 h4        1 3EF      0.151000
     60 HBEA        2.9440   -1.1010    3.4200 ha        1 3EF      0.172000
     61 HAS         3.2330   -2.8730    3.9400 ha        1 3EF      0.172000
     62 HAM         3.4930   -4.5860   -1.4280 ha        1 3EF      0.206000
     63 HAI         2.2950   -3.7520   -2.5500 ha        1 3EF      0.206000
     64 HAN        -2.0610   -3.6840    0.9090 ha        1 3EF      0.227000
     65 HAT         2.0980   -3.2080    0.1440 ha        1 3EF      0.151000
     66 HAU         1.8290    8.3720    7.1390 ha        1 3EF      0.154000
     67 HAV         2.6930    6.3120    3.4180 ha        1 3EF      0.154000
     68 HBAA       -0.3190    5.8830    4.4450 hc        1 3EF      0.153500
     69 HBC         1.1230    4.8860    3.9320 hc        1 3EF      0.153500
     70 HBCA       -1.9650    3.7560    4.8860 hc        1 3EF      0.145500
     71 HBV        -1.7770    3.2680    6.6470 hc        1 3EF      0.145500
     72 HN         -0.9700    4.4500    8.5490 ho        1 3EF      0.236000
     73 HA          1.5060    1.0130    7.8700 hn        1 3EF      0.234000
     74 HB          0.3760    5.6330    9.5700 ha        1 3EF      0.141000
     75 HBA        -1.3310    4.7300   12.0330 ha        1 3EF      0.158000
     76 HD1         0.0780    5.5320   13.3740 ha        1 3EF      0.144500
     77 HD2         2.6690    5.8880    9.9150 ha        1 3EF      0.144500
     78 HE1         2.0090    5.9700   14.8700 ha        1 3EF      0.147000
     79 HE2         4.6160    6.3280   11.4230 ha        1 3EF      0.147000
     80 HOH         4.2650    6.4050   14.9270 ho        1 3EF      0.222000
     81 HAJ         4.1910   10.3150    4.0860 ha        1 3EF      0.135000
     82 HAO         3.1170   10.3470    6.3390 ha        1 3EF      0.138500
     83 HBI2        1.0320    2.4120    0.7030 hn        1 3EF      0.182000
     84 H2          1.7890    2.5930    7.3040 hn        1 3EF      0.234000
     85 CBF         0.1550    2.2380    3.9220 c3        1 3EF     -0.847000
     86 OAC        -0.4140    0.5360    6.3450 o         1 3EF     -0.360000
     87 HAP         3.9790    8.2960    2.6320 ha        1 3EF      0.138500
     88 HBF        -0.5020    2.8920    3.2830 hc        1 3EF      0.159500
     89 HBFA       -0.3090    1.2090    3.8640 hc        1 3EF      0.159500
@<TRIPOS>BOND
     1    1    9 1
     2    2    3 1
     3    2    4 1
     4    2   50 1
     5    2   52 1
     6    3    5 1
     7    3   53 1
     8    4    6 1
     9    4   54 1
    10    5   10 1
    11    5   51 1
    12    6   10 1
    13    7    8 1
    14    7   10 1
    15    7   55 1
    16    7   56 1
    17    8    9 1
    18    9   58 1
    19   11   12 1
    20   12   13 1
    21   12   85 1
    22   14   15 1
    23   14   57 1
    24   14   59 1
    25   15   83 1
    26   16   17 1
    27   16   60 1
    28   16   61 1
    29   17   22 1
    30   18   19 1
    31   18   62 1
    32   18   63 1
    33   20   21 1
    34   20   64 1
    35   21   22 1
    36   22   65 1
    37   23   24 1
    38   23   25 1
    39   23   81 1
    40   24   26 1
    41   24   82 1
    42   25   27 1
    43   25   87 1
    44   26   34 1
    45   26   66 1
    46   27   34 1
    47   27   67 1
    48   28   33 1
    49   28   35 1
    50   28   68 1
    51   28   69 1
    52   29   33 1
    53   29   36 1
    54   29   70 1
    55   29   71 1
    56   30   31 1
    57   30   35 1
    58   31   33 1
    59   32   36 1
    60   32   37 1
    61   32   86 1
    62   33   36 1
    63   34   35 1
    64   36   85 1
    65   37   73 1
    66   37   84 1
    67   38   39 1
    68   38   41 1
    69   38   75 1
    70   39   40 1
    71   39   49 1
    72   40   72 1
    73   41   42 1
    74   41   74 1
    75   42   43 1
    76   42   44 1
    77   43   45 1
    78   43   76 1
    79   44   46 1
    80   44   77 1
    81   45   47 1
    82   45   78 1
    83   46   47 1
    84   46   79 1
    85   47   48 1
    86   48   80 1
    87   85   88 1
    88   85   89 1
@<TRIPOS>SUBSTRUCTURE
     1 3EF         1 TEMP              0 ****  ****    0 ROOT
