@<TRIPOS>MOLECULE
3EH
   70    72     1     0     0
SMALL
bcc


@<TRIPOS>ATOM
      1 C1           0.0000     0.0000     0.0000 ca         1 3EH      -0.146900
      2 C2           1.3980     0.0000     0.0000 ca         1 3EH      -0.084000
      3 C3          -0.6940     0.0060     1.2120 ca         1 3EH      -0.135000
      4 C4           2.0870     0.0000     1.1950 ca         1 3EH      -0.183000
      5 C5           0.0040     0.0050     2.4050 ca         1 3EH       0.112100
      6 C6           1.3970    -0.0010     2.3980 ca         1 3EH       0.138100
      7 C7          -2.4540    -0.4260    -3.5620 c          1 3EH       0.652100
      8 N10         -2.0210     0.0050    -1.2410 n2         1 3EH      -0.526300
      9 C11          0.0460    -0.0110    -2.5600 c3         1 3EH      -0.004600
     10 C12         -0.7390     0.0010    -1.2760 ce         1 3EH       0.433900
     11 C15         -4.5550     3.6630    -4.2780 ca         1 3EH      -0.086400
     12 C16         -4.0790     4.2870    -2.0130 ca         1 3EH      -0.087000
     13 C17         -4.5170     2.3230    -3.9150 ca         1 3EH      -0.108000
     14 C18         -4.0410     2.9530    -1.6540 ca         1 3EH      -0.099000
     15 C19         -4.2590     1.9720    -2.6040 ca         1 3EH      -0.122300
     16 C24         -2.0970     0.0170     3.5200 c3         1 3EH       0.239700
     17 O28         -4.5830     5.5250    -7.3740 os         1 3EH      -0.424900
     18 C30         -4.4300     7.0180    -9.2910 c3         1 3EH      -0.052400
     19 C31         -3.7380     8.2750    -9.8220 c3         1 3EH       0.155800
     20 C33         -3.7650     9.8840   -11.6320 c3         1 3EH       0.141800
     21 C34         -4.5940    10.9720   -10.9480 c3         1 3EH      -0.000600
     22 C35         -3.8100     7.5130   -12.1200 c3         1 3EH       0.141800
     23 C36         -4.6330     7.6270   -13.4040 c3         1 3EH      -0.000600
     24 O27         -3.4300     5.7480    -5.4900 o          1 3EH      -0.651000
     25 C26         -4.2490     5.1220    -6.1330 c          1 3EH       0.669100
     26 C29         -3.9260     6.7180    -7.8780 c3         1 3EH       0.245400
     27 N32         -4.2220     8.5630   -11.1800 n3         1 3EH      -0.539600
     28 C14         -4.3350     4.6450    -3.3220 ca         1 3EH      -0.094000
     29 N8          -2.8500     0.0120    -2.3550 n          1 3EH       0.103200
     30 S9          -0.8140    -1.0410    -3.7770 ss         1 3EH      -0.308700
     31 O21         -3.2240    -0.4040    -4.5020 o          1 3EH      -0.617500
     32 O22         -0.6690     0.0100     3.5870 os         1 3EH      -0.292900
     33 O23          2.0810    -0.0030     3.5720 os         1 3EH      -0.289900
     34 C25          3.5080    -0.0030     3.4910 c3         1 3EH       0.240700
     35 H1           1.9400    -0.0020    -0.9380 ha         1 3EH       0.109000
     36 H2          -1.7770     0.0080     1.2170 ha         1 3EH       0.143000
     37 H3           3.1710    -0.0020     1.1930 ha         1 3EH       0.125000
     38 H4           0.1330     1.0000    -2.9390 h1         1 3EH       0.073200
     39 H5           1.0330    -0.4200    -2.3750 h1         1 3EH       0.073200
     40 H6          -3.9070     5.0530    -1.2660 ha         1 3EH       0.106000
     41 H7          -4.6870     1.5540    -4.6590 ha         1 3EH       0.133000
     42 H8          -3.8390     2.6750    -0.6270 ha         1 3EH       0.108000
     43 H9          -2.4300     0.9100     3.0050 h1         1 3EH      -0.000967
     44 H10         -2.5060     0.0040     4.5230 h1         1 3EH      -0.000967
     45 H11         -2.4370    -0.8590     2.9810 h1         1 3EH      -0.000967
     46 H12         -4.2050     6.1810    -9.9400 hc         1 3EH       0.031700
     47 H13         -5.5010     7.1780    -9.2650 hc         1 3EH       0.031700
     48 H14         -2.6670     8.1150    -9.8470 h1         1 3EH       0.012200
     49 H15         -3.9630     9.1130    -9.1730 h1         1 3EH       0.012200
     50 H16         -3.8960     9.9500   -12.7050 h1         1 3EH       0.011700
     51 H17         -2.7180    10.0210   -11.3870 h1         1 3EH       0.011700
     52 H18         -4.6980    11.8200   -11.6150 hc         1 3EH       0.006700
     53 H19         -5.5750    10.5810   -10.7060 hc         1 3EH       0.006700
     54 H20         -4.0970    11.2870   -10.0380 hc         1 3EH       0.006700
     55 H21         -2.7580     7.6280   -12.3530 h1         1 3EH       0.011700
     56 H22         -3.9760     6.5410   -11.6700 h1         1 3EH       0.011700
     57 H23         -5.6040     8.0490   -13.1740 hc         1 3EH       0.006700
     58 H24         -4.7610     6.6440   -13.8400 hc         1 3EH       0.006700
     59 H25         -4.1170     8.2700   -14.1070 hc         1 3EH       0.006700
     60 H26         -2.8550     6.5560    -7.9030 h1         1 3EH       0.011700
     61 H27         -4.1500     7.5550    -7.2290 h1         1 3EH       0.011700
     62 H29         -5.4490     3.4710    -6.1560 hn         1 3EH       0.171500
     63 H30         -4.3640     5.6910    -3.6020 ha         1 3EH       0.142000
     64 H31         -4.5320     0.4160    -1.1760 h1         1 3EH       0.043700
     65 H32         -4.8830    -0.0490    -2.8470 h1         1 3EH       0.043700
     66 H33          3.8400     0.8820     2.9620 h1         1 3EH      -0.001633
     67 H34          3.9260    -0.0030     4.4910 h1         1 3EH      -0.001633
     68 H35          3.8400    -0.8870     2.9610 h1         1 3EH      -0.001633
     69 C13         -4.2170     0.5190    -2.2080 c3         1 3EH       0.124300
     70 N20         -4.8210     4.0220    -5.6050 ns         1 3EH      -0.004100
@<TRIPOS>BOND
     1     1     2 ar  
     2     1     3 ar  
     3     1    10 1   
     4     2     4 ar  
     5     2    35 1   
     6     3     5 ar  
     7     3    36 1   
     8     4     6 ar  
     9     4    37 1   
    10     5     6 ar  
    11     5    32 1   
    12     6    33 1   
    13     7    29 1   
    14     7    30 1   
    15     7    31 2   
    16     8    10 2   
    17     8    29 1   
    18     9    10 1   
    19     9    30 1   
    20     9    38 1   
    21     9    39 1   
    22    11    13 ar  
    23    11    28 ar  
    24    11    70 1   
    25    12    14 ar  
    26    12    28 ar  
    27    12    40 1   
    28    13    15 ar  
    29    13    41 1   
    30    14    15 ar  
    31    14    42 1   
    32    15    69 1   
    33    16    32 1   
    34    16    43 1   
    35    16    44 1   
    36    16    45 1   
    37    17    25 1   
    38    17    26 1   
    39    18    19 1   
    40    18    26 1   
    41    18    46 1   
    42    18    47 1   
    43    19    27 1   
    44    19    48 1   
    45    19    49 1   
    46    20    21 1   
    47    20    27 1   
    48    20    50 1   
    49    20    51 1   
    50    21    52 1   
    51    21    53 1   
    52    21    54 1   
    53    22    23 1   
    54    22    27 1   
    55    22    55 1   
    56    22    56 1   
    57    23    57 1   
    58    23    58 1   
    59    23    59 1   
    60    24    25 2   
    61    25    70 1   
    62    26    60 1   
    63    26    61 1   
    64    28    63 1   
    65    29    69 1   
    66    33    34 1   
    67    34    66 1   
    68    34    67 1   
    69    34    68 1   
    70    62    70 1   
    71    64    69 1   
    72    65    69 1   
@<TRIPOS>SUBSTRUCTURE
     1 3EH         1 TEMP              0 ****  ****    0 ROOT
