@<TRIPOS>MOLECULE
3EJ
   48    51     1     0     0
SMALL
bcc


@<TRIPOS>ATOM
      1 C1           0.0000     0.0000     0.0000 ca         1 3EJ      -0.077500
      2 C2           1.3970     0.0000     0.0000 ca         1 3EJ      -0.072600
      3 C3           2.0870     0.0000     1.2130 ca         1 3EJ      -0.077500
      4 C4           1.3880     0.0020     2.4020 ca         1 3EJ      -0.106000
      5 C5           0.0040     0.0010     2.3940 ca         1 3EJ      -0.199300
      6 C6          -0.6880     0.0070     1.1950 ca         1 3EJ      -0.106000
      7 C7           2.1390    -0.0020    -1.2760 c          1 3EJ       0.967200
      8 O8           1.5350    -0.0040    -2.3310 o          1 3EJ      -0.876800
      9 O9           3.4860    -0.0030    -1.2730 o          1 3EJ      -0.876800
     10 C10         -0.7530     0.0020     3.6980 c3         1 3EJ       0.054600
     11 N11         -0.9990     1.3840     4.1190 na         1 3EJ       0.757900
     12 N12         -0.2130     2.0880     4.8560 nc         1 3EJ      -0.361800
     13 N13         -0.7360     3.2540     5.0300 nd         1 3EJ      -0.347000
     14 C14         -1.9010     3.2710     4.3680 cd         1 3EJ       0.530500
     15 N15         -2.0320     2.0860     3.8050 nc         1 3EJ      -0.681800
     16 C16         -2.8550     4.4050     4.2820 ca         1 3EJ      -0.074500
     17 C17         -2.5910     5.6150     4.9270 ca         1 3EJ      -0.123300
     18 C18         -3.5140     6.6510     4.8180 ca         1 3EJ       0.301800
     19 N19         -4.6290     6.4940     4.1140 nb         1 3EJ      -0.581000
     20 C20         -4.9070     5.3670     3.4960 ca         1 3EJ       0.383200
     21 C21         -4.0390     4.2910     3.5480 ca         1 3EJ      -0.175300
     22 C22         -3.2490     7.9420     5.4960 c          1 3EJ       0.489600
     23 N23         -4.1380     8.9500     5.3950 ns         1 3EJ      -0.185900
     24 C24         -3.8770    10.2270     6.0650 c3         1 3EJ       0.107300
     25 C25         -5.0160    11.1760     5.7970 ca         1 3EJ      -0.092300
     26 O26         -2.2300     8.0920     6.1410 o          1 3EJ      -0.650100
     27 C27         -4.9790    12.0060     4.6920 ca         1 3EJ      -0.095000
     28 C28         -6.0240    12.8780     4.4460 ca         1 3EJ      -0.077000
     29 C29         -7.1060    12.9210     5.3040 ca         1 3EJ      -0.130000
     30 C30         -7.1440    12.0900     6.4120 ca         1 3EJ       0.100900
     31 C31         -6.1000    11.2130     6.6540 ca         1 3EJ      -0.117000
     32 F32         -8.2010    12.1320     7.2520 f          1 3EJ      -0.129900
     33 H1          -0.5420     0.0020    -0.9380 ha         1 3EJ       0.130000
     34 H3           3.1710     0.0000     1.2200 ha         1 3EJ       0.130000
     35 H4           1.9230    -0.0000     3.3440 ha         1 3EJ       0.093500
     36 H6          -1.7710     0.0060     1.1960 ha         1 3EJ       0.093500
     37 H10         -1.6990    -0.5100     3.5660 h1         1 3EJ       0.042200
     38 H10A        -0.1690    -0.5080     4.4550 h1         1 3EJ       0.042200
     39 H17         -1.6810     5.7460     5.5010 ha         1 3EJ       0.156000
     40 H20         -5.8270     5.2820     2.9310 h4         1 3EJ      -0.019900
     41 H21         -4.2790     3.3680     3.0350 ha         1 3EJ       0.132000
     42 HN23        -4.9830     8.8220     4.8740 hn         1 3EJ       0.196500
     43 H24         -2.9560    10.6520     5.6840 h1         1 3EJ       0.029700
     44 H24A        -3.7860    10.0640     7.1320 h1         1 3EJ       0.029700
     45 H27         -4.1310    11.9740     4.0190 ha         1 3EJ       0.115000
     46 H28         -5.9940    13.5280     3.5800 ha         1 3EJ       0.107000
     47 H29         -7.9230    13.6060     5.1120 ha         1 3EJ       0.117000
     48 H31         -6.1290    10.5630     7.5190 ha         1 3EJ       0.124000
@<TRIPOS>BOND
     1     1     2 ar  
     2     1     6 ar  
     3     1    33 1   
     4     2     3 ar  
     5     2     7 1   
     6     3     4 ar  
     7     3    34 1   
     8     4     5 ar  
     9     4    35 1   
    10     5     6 ar  
    11     5    10 1   
    12     6    36 1   
    13     7     8 1   
    14     7     9 1   
    15    10    11 1   
    16    10    37 1   
    17    10    38 1   
    18    11    12 1   
    19    11    15 1   
    20    12    13 2   
    21    13    14 1   
    22    14    15 2   
    23    14    16 1   
    24    16    17 ar  
    25    16    21 ar  
    26    17    18 ar  
    27    17    39 1   
    28    18    19 ar  
    29    18    22 1   
    30    19    20 ar  
    31    20    21 ar  
    32    20    40 1   
    33    21    41 1   
    34    22    23 1   
    35    22    26 2   
    36    23    24 1   
    37    23    42 1   
    38    24    25 1   
    39    24    43 1   
    40    24    44 1   
    41    25    27 ar  
    42    25    31 ar  
    43    27    28 ar  
    44    27    45 1   
    45    28    29 ar  
    46    28    46 1   
    47    29    30 ar  
    48    29    47 1   
    49    30    31 ar  
    50    30    32 1   
    51    31    48 1   
@<TRIPOS>SUBSTRUCTURE
     1 3EJ         1 TEMP              0 ****  ****    0 ROOT
