@<TRIPOS>MOLECULE
3EK
   58    61     1     0     0
SMALL
bcc


@<TRIPOS>ATOM
      1 C1           0.0000     0.0000     0.0000 c3         1 3EK      -0.068700
      2 C2           1.5300     0.0000     0.0000 c3         1 3EK      -0.029900
      3 C3           2.0400     0.0000     1.4430 c3         1 3EK      -0.005900
      4 C4           1.5300    -1.2490     2.1640 c3         1 3EK      -0.154700
      5 C5          -0.0000    -1.2490     2.1640 c3         1 3EK      -0.005900
      6 C6          -0.5100    -1.2500     0.7220 c3         1 3EK      -0.029900
      7 C7          -0.5100    -0.0010    -1.4420 c3         1 3EK      -0.012700
      8 N8          -0.1230     1.2520    -2.0970 na         1 3EK       0.375600
      9 N9          -0.3990     2.5530    -1.6510 nc         1 3EK      -0.646800
     10 C10          0.1280     3.3750    -2.5330 cd         1 3EK       0.602500
     11 N11          0.7130     2.6530    -3.4970 nd         1 3EK      -0.701000
     12 C12          0.5730     1.3780    -3.2420 cc         1 3EK       0.291400
     13 C13          0.0810     4.8570    -2.4700 ca         1 3EK      -0.078500
     14 C14          0.6770     5.6360    -3.4650 ca         1 3EK      -0.173300
     15 C15          0.6140     7.0140    -3.3730 ca         1 3EK       0.350600
     16 N16          0.0030     7.5990    -2.3650 nb         1 3EK      -0.577000
     17 C17         -0.5780     6.9010    -1.3950 ca         1 3EK       0.304800
     18 C18         -0.5640     5.5100    -1.4170 ca         1 3EK      -0.127300
     19 C19          1.2550     7.8600    -4.4430 c3         1 3EK      -0.036400
     20 C20         -1.2520     7.6100    -0.2840 c          1 3EK       0.487600
     21 O21         -1.7860     6.9780     0.6070 o          1 3EK      -0.645100
     22 N22         -1.2740     8.9580    -0.2590 ns         1 3EK      -0.188900
     23 C23         -1.9410     9.6590     0.8410 c3         1 3EK       0.110300
     24 C24         -1.8240    11.1480     0.6320 ca         1 3EK      -0.130300
     25 C25         -2.7950    11.8230    -0.0820 ca         1 3EK      -0.056500
     26 C26         -2.6890    13.1880    -0.2740 ca         1 3EK      -0.136000
     27 C27         -1.6070    13.8770     0.2490 ca         1 3EK       0.104900
     28 C28         -0.6360    13.1990     0.9650 ca         1 3EK      -0.136000
     29 C29         -0.7470    11.8360     1.1590 ca         1 3EK      -0.056500
     30 C30          2.0320    -1.2490     3.5850 c          1 3EK       0.982600
     31 O31          2.7270    -0.3430     3.9810 o          1 3EK      -0.897300
     32 F32         -1.5030    15.2120     0.0620 f          1 3EK      -0.131900
     33 O33          1.7080    -2.2550     4.4120 o          1 3EK      -0.897300
     34 H1          -0.3590     0.8830     0.5140 hc         1 3EK       0.058700
     35 H2           1.8900    -0.8860    -0.5090 hc         1 3EK       0.000950
     36 H2A          1.8900     0.8860    -0.5090 hc         1 3EK       0.000950
     37 H3           3.1230    -0.0020     1.4420 hc         1 3EK       0.026700
     38 H3A          1.6760     0.8840     1.9530 hc         1 3EK       0.026700
     39 H4           1.8880    -2.1320     1.6500 hc         1 3EK       0.018700
     40 H5          -0.3600    -0.3620     2.6720 hc         1 3EK       0.026700
     41 H5A         -0.3600    -2.1350     2.6730 hc         1 3EK       0.026700
     42 H6          -1.5930    -1.2480     0.7230 hc         1 3EK       0.000950
     43 H6A         -0.1460    -2.1340     0.2120 hc         1 3EK       0.000950
     44 H7          -1.5890    -0.0910    -1.4440 h1         1 3EK       0.030700
     45 H7A         -0.0770    -0.8370    -1.9780 h1         1 3EK       0.030700
     46 H12          0.9460     0.5640    -3.8510 h5         1 3EK       0.023100
     47 H14          1.1830     5.1650    -4.2990 ha         1 3EK       0.134000
     48 H18         -1.0380     4.9430    -0.6250 ha         1 3EK       0.158000
     49 H19          1.0990     8.9080    -4.2160 hc         1 3EK       0.010367
     50 H19A         2.3170     7.6530    -4.4790 hc         1 3EK       0.010367
     51 H19B         0.8090     7.6280    -5.4020 hc         1 3EK       0.010367
     52 HN22        -0.8350     9.4790    -0.9910 hn         1 3EK       0.194500
     53 H23         -2.9880     9.3800     0.8660 h1         1 3EK       0.029700
     54 H23A        -1.4720     9.3880     1.7790 h1         1 3EK       0.029700
     55 H25         -3.6400    11.2830    -0.4910 ha         1 3EK       0.114500
     56 H26         -3.4500    13.7180    -0.8340 ha         1 3EK       0.118500
     57 H28          0.2090    13.7380     1.3770 ha         1 3EK       0.118500
     58 H29          0.0130    11.3050     1.7190 ha         1 3EK       0.114500
@<TRIPOS>BOND
     1     1     2 1   
     2     1     6 1   
     3     1     7 1   
     4     1    34 1   
     5     2     3 1   
     6     2    35 1   
     7     2    36 1   
     8     3     4 1   
     9     3    37 1   
    10     3    38 1   
    11     4     5 1   
    12     4    30 1   
    13     4    39 1   
    14     5     6 1   
    15     5    40 1   
    16     5    41 1   
    17     6    42 1   
    18     6    43 1   
    19     7     8 1   
    20     7    44 1   
    21     7    45 1   
    22     8     9 1   
    23     8    12 1   
    24     9    10 2   
    25    10    11 1   
    26    10    13 1   
    27    11    12 2   
    28    12    46 1   
    29    13    14 ar  
    30    13    18 ar  
    31    14    15 ar  
    32    14    47 1   
    33    15    16 ar  
    34    15    19 1   
    35    16    17 ar  
    36    17    18 ar  
    37    17    20 1   
    38    18    48 1   
    39    19    49 1   
    40    19    50 1   
    41    19    51 1   
    42    20    21 2   
    43    20    22 1   
    44    22    23 1   
    45    22    52 1   
    46    23    24 1   
    47    23    53 1   
    48    23    54 1   
    49    24    25 ar  
    50    24    29 ar  
    51    25    26 ar  
    52    25    55 1   
    53    26    27 ar  
    54    26    56 1   
    55    27    28 ar  
    56    27    32 1   
    57    28    29 ar  
    58    28    57 1   
    59    29    58 1   
    60    30    31 1   
    61    30    33 1   
@<TRIPOS>SUBSTRUCTURE
     1 3EK         1 TEMP              0 ****  ****    0 ROOT
