@<TRIPOS>MOLECULE
3EL
   72    77     1     0     0
SMALL
bcc


@<TRIPOS>ATOM
      1 C21          0.0000     0.0000     0.0000 c3         1 3EL      -0.032400
      2 C22          1.5300     0.0000     0.0000 c3         1 3EL      -0.021900
      3 C23          2.0400     0.0000     1.4420 c3         1 3EL      -0.087500
      4 N6           3.5100     0.0010     1.4420 nz         1 3EL       0.076400
      5 C24          1.5310     1.2490     2.1630 c3         1 3EL      -0.021900
      6 C25          0.0010     1.2490     2.1640 c3         1 3EL      -0.032400
      7 C20         -0.5100     1.2490     0.7210 c3         1 3EL       0.137500
      8 N5          -1.9760     1.2490     0.7220 nu         1 3EL      -0.496900
      9 C15         -2.6680     1.7550    -0.3640 ca         1 3EL       0.720900
     10 N3          -3.9910     1.7460    -0.3460 nb         1 3EL      -0.655000
     11 N4          -1.9890     2.2410    -1.3930 nb         1 3EL      -0.730000
     12 C14         -2.6140     2.7390    -2.4490 ca         1 3EL       0.494200
     13 C13         -3.9970     2.7510    -2.4730 ca         1 3EL      -0.403600
     14 C12         -4.6860     2.2270    -1.3750 cp         1 3EL       0.550800
     15 C7          -6.1680     2.2160    -1.3530 cp         1 3EL      -0.329800
     16 C8          -6.8980     2.7290    -2.4270 ca         1 3EL      -0.010000
     17 C9          -8.2810     2.6960    -2.3580 ca         1 3EL      -0.269300
     18 C10         -8.8930     2.1610    -1.2410 ca         1 3EL       0.472200
     19 N2          -8.1820     1.6830    -0.2370 nb         1 3EL      -0.652000
     20 C11         -6.8600     1.6870    -0.2570 ca         1 3EL       0.655600
     21 O1          -6.1700     1.1830     0.7960 os         1 3EL      -0.305400
     22 C3          -6.8750     0.7680     1.8820 ca         1 3EL       0.081100
     23 C4          -7.0800     1.6180     2.9310 ca         1 3EL      -0.073000
     24 C5          -7.8010     1.2130     4.0510 ca         1 3EL      -0.185000
     25 C1          -7.4020    -0.5390     1.9250 ca         1 3EL      -0.018000
     26 C19         -7.2110    -1.4350     0.8600 ca         1 3EL      -0.090000
     27 C18         -7.7320    -2.6900     0.9340 ca         1 3EL      -0.095000
     28 C17         -8.4530    -3.1030     2.0530 ca         1 3EL      -0.095000
     29 C16         -8.6570    -2.2590     3.1040 ca         1 3EL      -0.092000
     30 C2          -8.1340    -0.9580     3.0620 ca         1 3EL      -0.049000
     31 C6          -8.3250    -0.0580     4.1320 ca         1 3EL       0.084600
     32 N1          -9.0440    -0.4520     5.2630 nu         1 3EL      -0.391500
     33 S1         -10.0110     0.6370     6.0500 sy         1 3EL       1.042200
     34 O2         -10.7050    -0.0930     7.0520 o          1 3EL      -0.584300
     35 O3          -9.1960     1.7660     6.3350 o          1 3EL      -0.584300
     36 C26        -11.2280     1.1820     4.8980 ca         1 3EL      -0.162500
     37 C27        -12.4290     0.5050     4.7900 ca         1 3EL       0.008500
     38 C28        -13.3840     0.9330     3.8860 ca         1 3EL      -0.130000
     39 C29        -13.1380     2.0360     3.0910 ca         1 3EL      -0.040000
     40 C30        -11.9370     2.7120     3.2000 ca         1 3EL      -0.130000
     41 C31        -10.9840     2.2890     4.1070 ca         1 3EL       0.008500
     42 H1          -0.3600     0.0030    -1.0220 hc         1 3EL       0.044450
     43 H2          -0.3600    -0.8840     0.5130 hc         1 3EL       0.044450
     44 H3           1.8900    -0.8860    -0.5090 hc         1 3EL       0.033700
     45 H4           1.8900     0.8860    -0.5090 hc         1 3EL       0.033700
     46 H5           1.6750    -0.8830     1.9520 hx         1 3EL       0.095700
     47 H6           3.8430    -0.0020     2.3850 hn         1 3EL       0.223800
     48 H7           3.8430     0.8190     0.9720 hn         1 3EL       0.223800
     49 H9           1.8910     1.2470     3.1850 hc         1 3EL       0.033700
     50 H10          1.8900     2.1330     1.6500 hc         1 3EL       0.033700
     51 H11         -0.3590     2.1350     2.6730 hc         1 3EL       0.044450
     52 H12         -0.3590     0.3620     2.6730 hc         1 3EL       0.044450
     53 H13         -0.1450     2.1320     0.2120 h1         1 3EL       0.061700
     54 H14         -2.4750     0.9160     1.5230 hn         1 3EL       0.312800
     55 H15         -2.0480     3.1360    -3.2840 h4         1 3EL      -0.015900
     56 H16         -4.5330     3.1510    -3.3250 ha         1 3EL       0.136000
     57 H17         -6.3960     3.1430    -3.2930 ha         1 3EL       0.116000
     58 H18         -8.8780     3.0840    -3.1740 ha         1 3EL       0.123000
     59 H19         -9.9740     2.1370    -1.1860 h4         1 3EL      -0.016900
     60 H20         -6.6780     2.6230     2.8900 ha         1 3EL       0.111000
     61 H21         -7.9500     1.9060     4.8700 ha         1 3EL       0.178000
     62 H22         -6.6530    -1.1280    -0.0170 ha         1 3EL       0.112000
     63 H23         -7.5830    -3.3790     0.1120 ha         1 3EL       0.102000
     64 H24         -8.8570    -4.1070     2.0880 ha         1 3EL       0.105000
     65 H25         -9.2200    -2.5920     3.9680 ha         1 3EL       0.107000
     66 H26         -8.9580    -1.3870     5.6100 hn         1 3EL       0.350800
     67 H27        -12.6210    -0.3590     5.4140 ha         1 3EL       0.122500
     68 H28        -14.3250     0.4030     3.8010 ha         1 3EL       0.110500
     69 H29        -13.8860     2.3690     2.3810 ha         1 3EL       0.104000
     70 H30        -11.7460     3.5790     2.5780 ha         1 3EL       0.110500
     71 H31        -10.0440     2.8190     4.1920 ha         1 3EL       0.122500
     72 H63          3.8440    -0.8210     0.9770 hn         1 3EL       0.223800
@<TRIPOS>BOND
     1     1     2 1   
     2     1     7 1   
     3     1    42 1   
     4     1    43 1   
     5     2     3 1   
     6     2    44 1   
     7     2    45 1   
     8     3     4 1   
     9     3     5 1   
    10     3    46 1   
    11     4    47 1   
    12     4    48 1   
    13     4    72 1   
    14     5     6 1   
    15     5    49 1   
    16     5    50 1   
    17     6     7 1   
    18     6    51 1   
    19     6    52 1   
    20     7     8 1   
    21     7    53 1   
    22     8     9 1   
    23     8    54 1   
    24     9    10 ar  
    25     9    11 ar  
    26    10    14 ar  
    27    11    12 ar  
    28    12    13 ar  
    29    12    55 1   
    30    13    14 ar  
    31    13    56 1   
    32    14    15 1   
    33    15    16 ar  
    34    15    20 ar  
    35    16    17 ar  
    36    16    57 1   
    37    17    18 ar  
    38    17    58 1   
    39    18    19 ar  
    40    18    59 1   
    41    19    20 ar  
    42    20    21 1   
    43    21    22 1   
    44    22    23 ar  
    45    22    25 ar  
    46    23    24 ar  
    47    23    60 1   
    48    24    31 ar  
    49    24    61 1   
    50    25    26 ar  
    51    25    30 ar  
    52    26    27 ar  
    53    26    62 1   
    54    27    28 ar  
    55    27    63 1   
    56    28    29 ar  
    57    28    64 1   
    58    29    30 ar  
    59    29    65 1   
    60    30    31 ar  
    61    31    32 1   
    62    32    33 1   
    63    32    66 1   
    64    33    34 2   
    65    33    35 2   
    66    33    36 1   
    67    36    37 ar  
    68    36    41 ar  
    69    37    38 ar  
    70    37    67 1   
    71    38    39 ar  
    72    38    68 1   
    73    39    40 ar  
    74    39    69 1   
    75    40    41 ar  
    76    40    70 1   
    77    41    71 1   
@<TRIPOS>SUBSTRUCTURE
     1 3EL         1 TEMP              0 ****  ****    0 ROOT
