@<TRIPOS>MOLECULE
molecule
   22    21     1     0     0
SMALL
bcc


@<TRIPOS>ATOM
      1 P1           0.0000     0.0000     0.0000 p3         1 3EP      -0.489700
      2 C1           1.8200     0.0000     0.0000 c3         1 3EP       0.047500
      3 C2           2.3320     0.0000     1.4410 c3         1 3EP      -0.087767
      4 C3          -0.1620    -0.0000    -1.8150 c3         1 3EP       0.047500
      5 C4           0.1510     1.3970    -2.3540 c3         1 3EP      -0.087767
      6 C5          -0.1590    -1.8070     0.1730 c3         1 3EP       0.047500
      7 C6          -1.5910    -2.1580     0.5840 c3         1 3EP      -0.087767
      8 H12          2.1810    -0.8840    -0.5110 hc         1 3EP       0.045867
      9 H11          2.1810     0.8840    -0.5110 hc         1 3EP       0.045867
     10 H23          1.5340     0.3060     2.1070 hc         1 3EP       0.037367
     11 H22          3.1620     0.6910     1.5300 hc         1 3EP       0.037367
     12 H21          2.6620    -0.9970     1.7070 hc         1 3EP       0.037367
     13 H32          0.5330    -0.7150    -2.2390 hc         1 3EP       0.045867
     14 H31         -1.1740    -0.2740    -2.0870 hc         1 3EP       0.045867
     15 H43         -0.4660     1.5960    -3.2220 hc         1 3EP       0.037367
     16 H42         -0.0550     2.1350    -1.5880 hc         1 3EP       0.037367
     17 H41          1.1960     1.4500    -2.6350 hc         1 3EP       0.037367
     18 H52          0.0720    -2.2830    -0.7720 hc         1 3EP       0.045867
     19 H51          0.5300    -2.1590     0.9320 hc         1 3EP       0.045867
     20 H63         -1.6170    -3.1660     0.9790 hc         1 3EP       0.037367
     21 H62         -1.9290    -1.4630     1.3440 hc         1 3EP       0.037367
     22 H61         -2.2410    -2.0920    -0.2800 hc         1 3EP       0.037367
@<TRIPOS>BOND
     1     1     2 1
     2     1     4 1
     3     1     6 1
     4     2     3 1
     5     2     8 1
     6     2     9 1
     7     3    10 1
     8     3    11 1
     9     3    12 1
    10     4     5 1
    11     4    13 1
    12     4    14 1
    13     5    15 1
    14     5    16 1
    15     5    17 1
    16     6     7 1
    17     6    18 1
    18     6    19 1
    19     7    20 1
    20     7    21 1
    21     7    22 1
@<TRIPOS>SUBSTRUCTURE
     1 3EP         1 TEMP              0 ****  ****    0 ROOT
