@<TRIPOS>MOLECULE
3EP
   22    21     1     0     0
SMALL
bcc


@<TRIPOS>ATOM
      1 P1          0.1950   -0.2160   -0.1610 p3        1 3EP     -0.417700
      2 C1          1.9230   -0.0900   -0.0320 c3        1 3EP      0.016500
      3 C2          2.2670    0.0220    1.4190 c3        1 3EP     -0.086767
      4 C3         -0.0600   -0.1150   -1.8770 c3        1 3EP      0.016500
      5 C4          0.0010    1.3300   -2.2610 c3        1 3EP     -0.086767
      6 C5         -0.1020   -1.8910    0.1770 c3        1 3EP      0.016500
      7 C6         -1.5490   -1.9430    0.5470 c3        1 3EP     -0.086767
      8 H12         2.2130    0.8300   -0.5930 hc        1 3EP      0.048367
      9 H11         2.4210   -0.9640   -0.5110 hc        1 3EP      0.048367
     10 H23         3.0760    0.7780    1.5820 hc        1 3EP      0.037589
     11 H22         1.3740    0.3420    2.0130 hc        1 3EP      0.037589
     12 H21         2.6380   -0.9480    1.8400 hc        1 3EP      0.037589
     13 H32         0.6950   -0.7230   -2.4260 hc        1 3EP      0.048367
     14 H31        -1.0690   -0.5470   -2.0760 hc        1 3EP      0.048367
     15 H43        -0.7960    1.5790   -3.0080 hc        1 3EP      0.037589
     16 H42        -0.1510    1.9830   -1.3660 hc        1 3EP      0.037589
     17 H41         0.9820    1.5990   -2.7290 hc        1 3EP      0.037589
     18 H52         0.5540   -2.1980    1.0250 hc        1 3EP      0.048367
     19 H51         0.1300   -2.5320   -0.7030 hc        1 3EP      0.048367
     20 H63        -1.7380   -1.2710    1.4190 hc        1 3EP      0.037589
     21 H62        -1.8710   -2.9790    0.8130 hc        1 3EP      0.037589
     22 H61        -2.1700   -1.5810   -0.3080 hc        1 3EP      0.037589
@<TRIPOS>BOND
     1    1    2 1   
     2    1    4 1   
     3    1    6 1   
     4    2    3 1   
     5    2    8 1   
     6    2    9 1   
     7    3   10 1   
     8    3   11 1   
     9    3   12 1   
    10    4    5 1   
    11    4   13 1   
    12    4   14 1   
    13    5   15 1   
    14    5   16 1   
    15    5   17 1   
    16    6    7 1   
    17    6   18 1   
    18    6   19 1   
    19    7   20 1   
    20    7   21 1   
    21    7   22 1   
@<TRIPOS>SUBSTRUCTURE
     1 3EP         1 TEMP              0 ****  ****    0 ROOT
