@<TRIPOS>MOLECULE
3EQ
   68    71     1     0     0
SMALL
bcc


@<TRIPOS>ATOM
      1 C1           0.0000     0.0000     0.0000 c3         1 3EQ       0.006900
      2 C2           1.5300     0.0000     0.0000 c3         1 3EQ      -0.023400
      3 C3           2.0400     0.0000     1.4420 c3         1 3EQ      -0.060400
      4 C4           3.5700     0.0000     1.4410 c3         1 3EQ       0.215800
      5 N5           4.0590     0.0000     2.8230 nh         1 3EQ      -0.365900
      6 C6           3.7860     1.0840     3.6600 ca         1 3EQ       0.075600
      7 C7           2.5910     1.1300     4.3710 ca         1 3EQ      -0.086000
      8 C8           2.3180     2.2010     5.2000 ca         1 3EQ      -0.112000
      9 C9           3.2290     3.2310     5.3280 ca         1 3EQ      -0.091000
     10 C10          4.4300     3.1930     4.6210 cp         1 3EQ      -0.034000
     11 C11          4.7080     2.1110     3.7880 ca         1 3EQ      -0.069300
     12 C12          6.0040     2.0630     3.0210 c3         1 3EQ       0.001200
     13 C13          5.4100     4.2980     4.7570 cp         1 3EQ      -0.034000
     14 C14          4.9940     5.6210     4.6140 ca         1 3EQ      -0.084000
     15 C15          5.9050     6.6460     4.7420 ca         1 3EQ      -0.100500
     16 C16          7.2380     6.3630     5.0130 ca         1 3EQ       0.055900
     17 S17          8.4030     7.6750     5.1760 ss         1 3EQ      -0.357000
     18 C18          9.9570     6.8040     5.5190 c3         1 3EQ       0.112000
     19 C19          7.6560     5.0430     5.1580 ca         1 3EQ      -0.100500
     20 C20          6.7460     4.0150     5.0360 ca         1 3EQ      -0.084000
     21 S21          4.9350    -1.2860     3.3910 sy         1 3EQ       1.056200
     22 O22          4.5910    -1.4310     4.7620 o          1 3EQ      -0.597300
     23 O23          4.7830    -2.3280     2.4370 o          1 3EQ      -0.597300
     24 C24          6.6330    -0.8180     3.3510 ca         1 3EQ      -0.227500
     25 C25          7.2960    -0.5510     4.5090 ca         1 3EQ       0.087000
     26 C26          8.6380    -0.1790     4.5000 ca         1 3EQ      -0.311000
     27 C27          9.3280    -0.0720     3.3270 ca         1 3EQ       0.250100
     28 O28         10.6380     0.2910     3.3340 os         1 3EQ      -0.243900
     29 C29         11.2320     0.5470     4.6070 c3         1 3EQ       0.079400
     30 C30         12.6760     0.9350     4.4190 c          1 3EQ       0.973600
     31 O31         13.1480     0.9850     3.3070 o          1 3EQ      -0.876300
     32 O32         13.4390     1.2230     5.4850 o          1 3EQ      -0.876300
     33 C33          8.6740    -0.3420     2.1070 ca         1 3EQ      -0.099000
     34 C34          9.3490    -0.2450     0.8790 ca         1 3EQ       0.000000
     35 C35          8.6840    -0.5130    -0.2780 ca         1 3EQ      -0.209000
     36 C36          7.3410    -0.8840    -0.2640 ca         1 3EQ      -0.069000
     37 C37          6.6550    -0.9890     0.9060 ca         1 3EQ      -0.211000
     38 C38          7.3100    -0.7250     2.1220 ca         1 3EQ       0.122000
     39 H1          -0.3610    -0.0290    -1.0210 hc         1 3EQ      -0.002300
     40 H1A         -0.3610     0.8990     0.4850 hc         1 3EQ      -0.002300
     41 H1B         -0.3610    -0.8700     0.5360 hc         1 3EQ      -0.002300
     42 H2           1.8910    -0.8840    -0.5110 hc         1 3EQ       0.012700
     43 H2A          1.8910     0.8850    -0.5100 hc         1 3EQ       0.012700
     44 H3           1.6790    -0.8850     1.9530 hc         1 3EQ       0.022200
     45 H3A          1.6790     0.8850     1.9530 hc         1 3EQ       0.022200
     46 H4           3.9310     0.8850     0.9310 h1         1 3EQ       0.035200
     47 H4A          3.9310    -0.8840     0.9300 h1         1 3EQ       0.035200
     48 H7           1.8730     0.3250     4.2740 ha         1 3EQ       0.111000
     49 H8           1.3860     2.2330     5.7510 ha         1 3EQ       0.098000
     50 H9           3.0100     4.0700     5.9780 ha         1 3EQ       0.104000
     51 H12          6.2180     3.0430     2.6120 hc         1 3EQ       0.031367
     52 H12A         5.9190     1.3460     2.2130 hc         1 3EQ       0.031367
     53 H12B         6.8060     1.7660     3.6850 hc         1 3EQ       0.031367
     54 H14          3.9550     5.8420     4.4020 ha         1 3EQ       0.115000
     55 H15          5.5820     7.6740     4.6300 ha         1 3EQ       0.119000
     56 H18         10.7520     7.5260     5.6610 h1         1 3EQ       0.041700
     57 H18A        10.2000     6.1580     4.6840 h1         1 3EQ       0.041700
     58 H18B         9.8460     6.2080     6.4170 h1         1 3EQ       0.041700
     59 H19          8.6950     4.8240     5.3720 ha         1 3EQ       0.119000
     60 H20          7.0710     2.9880     5.1480 ha         1 3EQ       0.115000
     61 H25          6.7720    -0.6280     5.4540 ha         1 3EQ       0.118000
     62 H26          9.1410     0.0280     5.4370 ha         1 3EQ       0.143000
     63 H29         10.7020     1.3560     5.0960 h1         1 3EQ       0.000200
     64 H29A        11.1740    -0.3440     5.2200 h1         1 3EQ       0.000200
     65 H34         10.3860    -0.1360     0.5850 ha         1 3EQ       0.131000
     66 H35          9.1920    -0.5050    -1.2340 ha         1 3EQ       0.101000
     67 H36          7.0170    -1.1380    -1.2660 ha         1 3EQ       0.092000
     68 H37          6.2090    -1.9280     0.6020 ha         1 3EQ       0.166000
@<TRIPOS>BOND
     1     1     2 1   
     2     1    39 1   
     3     1    40 1   
     4     1    41 1   
     5     2     3 1   
     6     2    42 1   
     7     2    43 1   
     8     3     4 1   
     9     3    44 1   
    10     3    45 1   
    11     4     5 1   
    12     4    46 1   
    13     4    47 1   
    14     5     6 1   
    15     5    21 1   
    16     6     7 ar  
    17     6    11 ar  
    18     7     8 ar  
    19     7    48 1   
    20     8     9 ar  
    21     8    49 1   
    22     9    10 ar  
    23     9    50 1   
    24    10    11 ar  
    25    10    13 1   
    26    11    12 1   
    27    12    51 1   
    28    12    52 1   
    29    12    53 1   
    30    13    14 ar  
    31    13    20 ar  
    32    14    15 ar  
    33    14    54 1   
    34    15    16 ar  
    35    15    55 1   
    36    16    17 1   
    37    16    19 ar  
    38    17    18 1   
    39    18    56 1   
    40    18    57 1   
    41    18    58 1   
    42    19    20 ar  
    43    19    59 1   
    44    20    60 1   
    45    21    22 2   
    46    21    23 2   
    47    21    24 1   
    48    24    25 ar  
    49    24    38 ar  
    50    25    26 ar  
    51    25    61 1   
    52    26    27 ar  
    53    26    62 1   
    54    27    28 1   
    55    27    33 ar  
    56    28    29 1   
    57    29    30 1   
    58    29    63 1   
    59    29    64 1   
    60    30    31 1   
    61    30    32 1   
    62    33    34 ar  
    63    33    38 ar  
    64    34    35 ar  
    65    34    65 1   
    66    35    36 ar  
    67    35    66 1   
    68    36    37 ar  
    69    36    67 1   
    70    37    38 ar  
    71    37    68 1   
@<TRIPOS>SUBSTRUCTURE
     1 3EQ         1 TEMP              0 ****  ****    0 ROOT
