@<TRIPOS>MOLECULE
molecule
   25    25     1     0     0
SMALL
bcc


@<TRIPOS>ATOM
      1 C1           0.0000     0.0000     0.0000 ca         1 3ER      -0.102000
      2 C2           1.3830     0.0000     0.0000 ca         1 3ER      -0.129000
      3 C3           2.0740     0.0000     1.1970 ca         1 3ER      -0.147000
      4 C13         -5.3810     0.5400     1.8850 c3         1 3ER      -0.229300
      5 C4           1.3820     0.0010     2.3950 ca         1 3ER       0.027400
      6 C5          -0.0010     0.0010     2.3950 ca         1 3ER      -0.115000
      7 C6          -0.6920     0.0000     1.1960 ca         1 3ER      -0.009300
      8 C7          -2.1980     0.0060     1.1960 c3         1 3ER       0.166800
      9 N8          -2.6840     0.8940     2.2550 n7         1 3ER      -0.883100
     10 C9          -2.7060    -1.3920     1.4400 c          1 3ER       0.873600
     11 O11         -3.4030    -1.6220     2.4000 o          1 3ER      -0.827800
     12 S12         -4.0640     1.7810     2.0250 s6         1 3ER       1.334900
     13 O14         -3.8580     2.4320     0.7790 o          1 3ER      -0.667800
     14 O15         -4.2060     2.5260     3.2260 o          1 3ER      -0.667800
     15 Cl1          2.2490     0.0010     3.8990 cl         1 3ER      -0.148400
     16 H1          -0.5410     0.0090    -0.9380 ha         1 3ER       0.140000
     17 H2           1.9240     0.0000    -0.9380 ha         1 3ER       0.120000
     18 H3           3.1570     0.0000     1.2040 ha         1 3ER       0.123000
     19 H4          -5.2210    -0.0570     0.9950 h1         1 3ER       0.099367
     20 H5          -6.3400     1.0380     1.8180 h1         1 3ER       0.099367
     21 H6          -5.3670    -0.1020     2.7570 h1         1 3ER       0.099367
     22 H17         -0.5420    -0.0480     3.3320 ha         1 3ER       0.148000
     23 H18         -2.5570     0.3580     0.2360 h1         1 3ER       0.072700
     24 H19         -2.1770     0.9700     3.1150 hn         1 3ER       0.450800
     25 OXT         -2.3850    -2.3800     0.5900 o          1 3ER      -0.827800
@<TRIPOS>BOND
     1     3     2 ar
     2     3     5 ar
     3     2     1 ar
     4    15     5 1
     5     5     6 ar
     6     1     7 ar
     7     6     7 ar
     8     7     8 1
     9     9     8 1
    10     9    12 1
    11     8    10 1
    12    14    12 2
    13    12    13 2
    14    12     4 1
    15    11    10 1
    16     1    16 1
    17     2    17 1
    18     3    18 1
    19     4    19 1
    20     4    20 1
    21     4    21 1
    22     6    22 1
    23     8    23 1
    24     9    24 1
    25    10    25 1
@<TRIPOS>SUBSTRUCTURE
     1 3ER         1 TEMP              0 ****  ****    0 ROOT
