@<TRIPOS>MOLECULE
3ES
   90    89     1     0     0
SMALL
bcc


@<TRIPOS>ATOM
      1 CBM        -1.3210    2.0000   -0.1930 c2        1 3ES      0.422000
      2 OAB        -0.8010    1.0260   -0.8150 o         1 3ES     -0.577000
      3 OBJ        -1.7710    1.8290    1.0420 oh        1 3ES     -0.424000
      4 CBB        -1.6760   -3.3330    6.0020 c2        1 3ES     -0.089000
      5 CBP        -1.4690   -2.1220    5.4380 c2        1 3ES     -0.034000
      6 CAQ        -1.7100   -1.9220    4.0200 c2        1 3ES      0.090000
      7 CAK        -1.5540   -0.7330    3.3670 c2        1 3ES     -0.273000
      8 CAH        -1.8150   -0.5570    2.0060 c1        1 3ES     -0.075000
      9 CAL        -0.6430   -0.1000    6.8620 c1        1 3ES     -0.134000
     10 CAR        -1.0210   -1.0240    6.2020 c1        1 3ES     -0.173000
     11 PBY         0.3360    1.4700   -4.1240 p5        1 3ES      3.068000
     12 OAG         0.1640    2.9130   -3.5080 oh        1 3ES     -0.870000
     13 CBX         1.6410    0.7990   -3.6100 c2        1 3ES     -1.214000
     14 NBI        -1.4900    3.2510   -0.7450 n         1 3ES     -0.422000
     15 CBE         1.7680    0.0890   -2.4660 c2        1 3ES      0.173000
     16 CBQ         3.0010   -0.4200   -1.9380 c2        1 3ES     -0.224000
     17 CAS        -1.9840    0.1050   -8.2110 c1        1 3ES     -0.228500
     18 CAM        -1.2450   -0.5150   -8.9180 c1        1 3ES     -0.228500
     19 CAI         6.4540   -0.8250   -1.3050 c1        1 3ES     -0.112000
     20 CAN         5.4150   -0.4280   -1.7520 c1        1 3ES     -0.189000
     21 CAT         4.2170    0.0590   -2.2910 c2        1 3ES      0.083000
     22 CBC        -0.6750    3.2960   -7.2150 c3        1 3ES     -0.102000
     23 CBS        -1.8380    3.6090   -6.3780 c2        1 3ES     -0.082000
     24 CBA        -2.3090    4.7100   -5.6990 c2        1 3ES     -0.173000
     25 OBK        -2.8000    2.5720   -6.2360 os        1 3ES     -0.080000
     26 NBG        -3.8130    2.9900   -5.5080 n2        1 3ES      0.001000
     27 CBU        -3.6000    4.2760   -5.1410 c2        1 3ES     -0.048000
     28 CBT        -4.4850    5.0970   -4.3390 c2        1 3ES     -0.077000
     29 CAU        -5.5020    4.3530   -3.4890 c3        1 3ES     -0.098000
     30 CAO        -5.9390    5.2420   -2.3570 c2        1 3ES     -0.114000
     31 CAJ        -6.0140    6.5070   -2.7430 c1        1 3ES     -0.130000
     32 CAP        -5.4940    7.2130   -3.7400 c2        1 3ES     -0.114000
     33 CAV        -4.4150    6.4570   -4.3920 c2        1 3ES     -0.084000
     34 CBV         0.5320    2.8030   -6.4070 c3        1 3ES     -0.129000
     35 CBN         1.7300    2.7440   -7.4040 c3        1 3ES      0.093000
     36 OAC         2.6220    1.6900   -7.2190 oh        1 3ES     -0.293000
     37 N           2.4730    4.0920   -7.4460 n4        1 3ES     -0.026000
     38 CA          3.6000    4.1480   -6.5170 c2        1 3ES     -0.246000
     39 C           3.2290    3.7740   -5.0770 c2        1 3ES      0.367000
     40 O           2.3250    4.4520   -4.5180 o         1 3ES     -0.534500
     41 CB          4.8470    4.4880   -6.8880 c2        1 3ES      0.000000
     42 CG          5.2650    4.8730   -8.2250 ca        1 3ES     -0.161000
     43 CD1         4.6190    5.9010   -8.9250 ca        1 3ES     -0.079500
     44 CD2         6.3730    4.2310   -8.8070 ca        1 3ES     -0.079500
     45 CE1         5.0510    6.2750  -10.1930 ca        1 3ES     -0.181000
     46 CE2         6.8100    4.5820  -10.0750 ca        1 3ES     -0.181000
     47 CZ          6.1440    5.6110  -10.7710 ca        1 3ES      0.115000
     48 OH          6.6230    5.9080  -12.0180 oh        1 3ES     -0.231000
     49 OXT         3.7620    2.7360   -4.6080 o         1 3ES     -0.534500
     50 HBB1       -1.5040   -3.5130    7.0730 ha        1 3ES      0.140000
     51 HBB2       -1.7180    0.7640    1.3770 ho        1 3ES      0.349000
     52 HAQ        -2.0260   -4.1980    5.4220 ha        1 3ES      0.140000
     53 HAK        -2.0500   -2.8180    3.4630 ha        1 3ES      0.134000
     54 HAH        -1.2180    0.1580    3.9340 ha        1 3ES      0.169000
     55 HAL        -2.1240   -1.4150    1.3930 ha        1 3ES      0.078000
     56 HAR        -0.3080    0.7220    7.4470 ha        1 3ES      0.237000
     57 HAG         0.9070    3.5170   -3.3650 ho        1 3ES      0.351000
     58 HBX        -0.9840    3.4790   -1.5640 hn        1 3ES      0.229500
     59 HBI        -1.7860    3.9870   -0.1530 hn        1 3ES      0.229500
     60 HBE1        2.5840    0.9800   -4.1760 ha        1 3ES      0.220000
     61 HBE2        0.8550   -0.1200   -1.8610 ha        1 3ES      0.173000
     62 HAS        -2.6680    0.6390   -7.5940 ha        1 3ES      0.229000
     63 HAM         2.9080   -1.2200   -1.1820 ha        1 3ES      0.156000
     64 HAI        -0.5980   -1.0750   -9.5470 ha        1 3ES      0.229000
     65 HAN         7.3770   -1.1750   -0.9100 ha        1 3ES      0.237000
     66 HAT         4.3260    0.8960   -3.0180 ha        1 3ES      0.181000
     67 HBC1       -0.9680    2.5050   -7.9650 hc        1 3ES      0.116000
     68 HBC2        0.9320    0.6820   -6.2060 hc        1 3ES      0.203500
     69 HBV        -0.3920    4.2260   -7.7800 hc        1 3ES      0.116000
     70 HBA        -1.8580    5.6880   -5.5650 ha        1 3ES      0.184000
     71 HAU        -5.0270    3.4430   -3.0340 hc        1 3ES      0.125500
     72 HAV        -3.6750    6.9980   -4.9960 ha        1 3ES      0.137000
     73 HAO        -6.3420    4.0100   -4.1490 hc        1 3ES      0.125500
     74 HAJ        -5.8460    8.1590   -4.1590 ha        1 3ES      0.168000
     75 HAP        -6.0420    4.8430   -1.3450 ha        1 3ES      0.163000
     76 HBF1       -0.7730    1.1180   -6.0880 hc        1 3ES      0.203500
     77 HBF2        0.7390    3.5690   -5.5960 hc        1 3ES      0.161000
     78 H           1.3350    2.5750   -8.4590 hx        1 3ES      0.160000
     79 HA          2.8100    4.2530   -8.4030 hn        1 3ES      0.247000
     80 HB1C        1.8180    4.8360   -7.1790 hn        1 3ES      0.247000
     81 HB2C        5.6370    4.4580   -6.1100 ha        1 3ES      0.191000
     82 HD1         3.7940    6.4570   -8.4540 ha        1 3ES      0.140000
     83 HD2         6.8970    3.4380   -8.2480 ha        1 3ES      0.140000
     84 HE1         4.5530    7.0950  -10.7320 ha        1 3ES      0.160000
     85 HE2         7.6720    4.0830  -10.5430 ha        1 3ES      0.160000
     86 HH          6.1290    6.6660  -12.3670 ho        1 3ES      0.232000
     87 CBF         0.2580    1.4680   -5.7520 c3        1 3ES     -0.979000
     88 HBI2       -1.3170    0.9210   -2.7200 ho        1 3ES      0.351000
     89 H2          3.0550    1.7340   -6.3420 ho        1 3ES      0.267000
     90 OAD        -0.9890    0.7970   -3.6250 oh        1 3ES     -0.870000
@<TRIPOS>BOND
     1    1    2 1
     2    1    3 1
     3    1   14 1
     4    3   51 1
     5    4    5 1
     6    4   50 1
     7    4   52 1
     8    5    6 1
     9    5   10 1
    10    6    7 1
    11    6   53 1
    12    7    8 1
    13    7   54 1
    14    8   55 1
    15    9   10 1
    16    9   56 1
    17   11   12 1
    18   11   13 1
    19   11   87 1
    20   11   90 1
    21   12   57 1
    22   13   15 1
    23   13   60 1
    24   14   58 1
    25   14   59 1
    26   15   16 1
    27   15   61 1
    28   16   21 1
    29   16   63 1
    30   17   18 1
    31   17   62 1
    32   18   64 1
    33   19   20 1
    34   19   65 1
    35   20   21 1
    36   21   66 1
    37   22   23 1
    38   22   34 1
    39   22   67 1
    40   22   69 1
    41   23   24 1
    42   23   25 1
    43   24   27 1
    44   24   70 1
    45   25   26 1
    46   26   27 1
    47   27   28 1
    48   28   29 1
    49   28   33 1
    50   29   30 1
    51   29   71 1
    52   29   73 1
    53   30   31 1
    54   30   75 1
    55   31   32 1
    56   32   33 1
    57   32   74 1
    58   33   72 1
    59   34   35 1
    60   34   77 1
    61   34   87 1
    62   35   36 1
    63   35   37 1
    64   35   78 1
    65   36   89 1
    66   37   38 1
    67   37   79 1
    68   37   80 1
    69   38   39 1
    70   38   41 1
    71   39   40 1
    72   39   49 1
    73   41   42 1
    74   41   81 1
    75   42   43 1
    76   42   44 1
    77   43   45 1
    78   43   82 1
    79   44   46 1
    80   44   83 1
    81   45   47 1
    82   45   84 1
    83   46   47 1
    84   46   85 1
    85   47   48 1
    86   48   86 1
    87   68   87 1
    88   76   87 1
    89   88   90 1
@<TRIPOS>SUBSTRUCTURE
     1 3ES         1 TEMP              0 ****  ****    0 ROOT
