@<TRIPOS>MOLECULE
molecule
   51    51     1     0     0
SMALL
bcc


@<TRIPOS>ATOM
      1 O35          0.0000     0.0000     0.0000 o          1 3ET      -0.470000
      2 C34          1.2070     0.0000     0.0000 c          1 3ET       0.624100
      3 C36          1.9620     0.0000     1.3050 c3         1 3ET       0.062500
      4 C38          2.4330     1.4210     1.6210 c3         1 3ET       0.123400
      5 O39          3.2450     1.4020     2.7970 oh         1 3ET      -0.621800
      6 N37          1.0790    -0.4740     2.3790 nz         1 3ET      -0.797600
      7 O33          1.8790    -0.0060    -1.1630 os         1 3ET      -0.448900
      8 C32          1.0880    -0.0110    -2.3810 c3         1 3ET       0.129400
      9 C22          2.0210    -0.0170    -3.5940 c3         1 3ET       0.048500
     10 N1           2.7840    -1.2720    -3.6200 nz         1 3ET      -0.803600
     11 C25          1.2050     0.1010    -4.8550 c          1 3ET       0.613100
     12 O10          0.9590    -0.8840    -5.5100 o          1 3ET      -0.534000
     13 O15          0.7510     1.3010    -5.2520 os         1 3ET      -0.351900
     14 C30         -0.0280     1.3390    -6.4760 c3         1 3ET       0.148400
     15 C24         -0.4560     2.7800    -6.7640 c3         1 3ET       0.009700
     16 C27         -1.1860     3.3360    -5.5680 c          1 3ET       0.876600
     17 O14         -0.7590     4.3140    -5.0010 o          1 3ET      -0.820300
     18 O12         -2.3110     2.7450    -5.1350 o          1 3ET      -0.820300
     19 N3           0.7320     3.5960    -7.0340 ns         1 3ET      -0.569900
     20 C21          0.6260     4.7120    -7.7810 c          1 3ET       0.679700
     21 O9          -0.4550     5.0430    -8.2300 o          1 3ET      -0.560100
     22 C18          1.8200     5.5340    -8.0530 ca         1 3ET      -0.108600
     23 C3           1.7140     6.6950    -8.8280 ca         1 3ET       0.168100
     24 O3           0.5110     7.0710    -9.3340 oh         1 3ET      -0.457100
     25 C6           2.8480     7.4620    -9.0780 ca         1 3ET       0.050100
     26 O6           2.7520     8.5910    -9.8300 oh         1 3ET      -0.500100
     27 C9           4.0730     7.0760    -8.5610 ca         1 3ET      -0.156000
     28 C12          4.1780     5.9280    -7.7940 ca         1 3ET      -0.165000
     29 C15          3.0630     5.1600    -7.5330 ca         1 3ET      -0.124000
     30 H36          2.8200    -0.6560     1.2260 hx         1 3ET       0.140700
     31 H38          1.5730     2.0580     1.7870 h1         1 3ET       0.084200
     32 H38A         3.0110     1.8040     0.7890 h1         1 3ET       0.084200
     33 HO39         3.6630     2.2400     2.9040 ho         1 3ET       0.466000
     34 HN37         1.6310    -0.7460     3.1680 hn         1 3ET       0.474800
     35 HN3A         0.5510    -1.2600     2.0540 hn         1 3ET       0.474800
     36 H32          0.4630    -0.8950    -2.4010 h1         1 3ET       0.126200
     37 H32A         0.4640     0.8740    -2.4090 h1         1 3ET       0.126200
     38 H22          2.7050     0.8200    -3.5270 hx         1 3ET       0.149700
     39 HN1          3.1260    -1.4360    -4.5460 hn         1 3ET       0.464800
     40 HN1A         3.5550    -1.2070    -2.9860 hn         1 3ET       0.464800
     41 H30          0.5720     0.9690    -7.2980 h1         1 3ET       0.069200
     42 H30A        -0.9080     0.7180    -6.3630 h1         1 3ET       0.069200
     43 H24         -1.1100     2.7970    -7.6270 h1         1 3ET       0.122700
     44 HN3          1.6250     3.3130    -6.6820 hn         1 3ET       0.288500
     45 HO3          0.3440     7.9710    -9.1100 ho         1 3ET       0.428000
     46 HO6          3.2040     9.2970    -9.3960 ho         1 3ET       0.419000
     47 H9           4.9550     7.6700    -8.7650 ha         1 3ET       0.134000
     48 H12          5.1430     5.6250    -7.4070 ha         1 3ET       0.121000
     49 H15          3.5160     4.3460    -6.9810 ha         1 3ET       0.125000
     50 H373         0.4470     0.2570     2.6380 hn         1 3ET       0.474800
     51 H13          2.1890    -2.0300    -3.3480 hn         1 3ET       0.464800
@<TRIPOS>BOND
     1     2     1 2
     2     7     2 1
     3     2     3 1
     4     4     3 1
     5     3     6 1
     6     3    30 1
     7     4     5 1
     8     4    31 1
     9     4    32 1
    10     5    33 1
    11     6    34 1
    12     6    35 1
    13     8     7 1
    14     9     8 1
    15     8    36 1
    16     8    37 1
    17    10     9 1
    18     9    11 1
    19     9    38 1
    20    10    39 1
    21    10    40 1
    22    11    13 1
    23    11    12 2
    24    13    14 1
    25    14    15 1
    26    14    41 1
    27    14    42 1
    28    19    15 1
    29    15    16 1
    30    15    43 1
    31    16    17 1
    32    16    18 1
    33    20    19 1
    34    19    44 1
    35    22    20 1
    36    21    20 2
    37    29    22 ar
    38    22    23 ar
    39    25    23 ar
    40    23    24 1
    41    24    45 1
    42    27    25 ar
    43    25    26 1
    44    26    46 1
    45    28    27 ar
    46    27    47 1
    47    28    29 ar
    48    28    48 1
    49    29    49 1
    50    50     6 1
    51    51    10 1
@<TRIPOS>SUBSTRUCTURE
     1 3ET         1 TEMP              0 ****  ****    0 ROOT
