@<TRIPOS>MOLECULE
molecule
   17    17     1     0     0
SMALL
bcc


@<TRIPOS>ATOM
      1 C12          0.0000     0.0000     0.0000 c          1 3EU       0.893600
      2 C13          1.5070     0.0000     0.0000 c3         1 3EU      -0.154100
      3 C15          2.0100     0.0000     1.4210 ca         1 3EU       0.023700
      4 C16          2.2400    -1.1980     2.0720 ca         1 3EU      -0.108000
      5 C17          2.7010    -1.1990     3.3760 ca         1 3EU       0.028400
      6 C18          2.9300    -0.0020     4.0300 ca         1 3EU      -0.153000
      7 C19          2.7000     1.1960     3.3770 ca         1 3EU       0.028400
      8 C20          2.2440     1.1960     2.0710 ca         1 3EU      -0.108000
      9 O14         -0.6040     0.0040     1.0460 o          1 3EU      -0.837800
     10 Cl1          2.9950     2.7000     4.1940 cl         1 3EU      -0.144900
     11 Cl2          2.9890    -2.7030     4.1940 cl         1 3EU      -0.144900
     12 H4           1.8680     0.8840    -0.5110 hc         1 3EU       0.044700
     13 H5           1.8680    -0.8840    -0.5110 hc         1 3EU       0.044700
     14 H6           2.0880    -2.1350     1.5510 ha         1 3EU       0.145000
     15 H7           3.2520    -0.0020     5.0640 ha         1 3EU       0.134000
     16 H8           2.2220     2.2250     1.7320 ha         1 3EU       0.145000
     17 OXT         -0.6710     0.0000    -1.1630 o          1 3EU      -0.837800
@<TRIPOS>BOND
     1    10     7 1
     2     7     8 ar
     3     7     6 ar
     4     8     3 ar
     5     6     5 ar
     6     3     4 ar
     7     3     2 1
     8     5     4 ar
     9     5    11 1
    10     2     1 1
    11     9     1 1
    12     2    12 1
    13     2    13 1
    14     4    14 1
    15     6    15 1
    16     8    16 1
    17     1    17 1
@<TRIPOS>SUBSTRUCTURE
     1 3EU         1 TEMP              0 ****  ****    0 ROOT
