@<TRIPOS>MOLECULE
3EU
   17    16     1     0     0
SMALL
bcc


@<TRIPOS>ATOM
      1 C12        -0.1550    0.4830   -0.0940 c         1 3EU      0.919600
      2 C13         1.2920   -0.0600    0.0390 c3        1 3EU     -0.186200
      3 C15         1.7880   -0.0780    1.4410 ce        1 3EU     -0.005200
      4 C16         2.3720   -1.3380    1.8820 ce        1 3EU     -0.103000
      5 C17         3.3980   -1.4360    2.7350 c2        1 3EU     -0.088600
      6 C18         2.1070    1.1720    3.5310 ch        1 3EU     -0.066300
      7 C19         2.4650    1.3530    4.6630 c1        1 3EU     -0.190100
      8 C20         1.6710    1.0280    2.2120 cf        1 3EU     -0.077700
      9 O14        -0.3570    1.7000    0.1790 o         1 3EU     -0.833300
     10 CL1         2.9380    1.5920    6.1720 cl        1 3EU      0.035100
     11 CL2         4.0660   -2.9310    3.2010 cl        1 3EU     -0.164400
     12 H4          1.3270   -1.0850   -0.4100 hc        1 3EU      0.042200
     13 H5          1.9520    0.6130   -0.5670 hc        1 3EU      0.042200
     14 H6          1.9110   -2.2400    1.4380 ha        1 3EU      0.145000
     15 H7          3.9010   -0.5860    3.2120 h4        1 3EU      0.155000
     16 H8          1.1290    1.9050    1.7820 ha        1 3EU      0.208000
     17 OXT        -1.0360   -0.3200   -0.5040 o         1 3EU     -0.833300
@<TRIPOS>BOND
     1    1    2 1   
     2    1    9 1   
     3    1   17 1   
     4    2    3 1   
     5    2   12 1   
     6    2   13 1   
     7    3    4 1   
     8    3    8 2   
     9    4    5 2   
    10    4   14 1   
    11    5   11 1   
    12    5   15 1   
    13    6    7 3   
    14    6    8 1   
    15    7   10 1   
    16    8   16 1   
@<TRIPOS>SUBSTRUCTURE
     1 3EU         1 TEMP              0 ****  ****    0 ROOT
