@<TRIPOS>MOLECULE
3EV
   74    76     1     0     0
SMALL
bcc


@<TRIPOS>ATOM
      1 C1          0.1830    0.2460   -0.1640 c3        1 3EV      0.188300
      2 O1         -0.0260    0.7290   -1.4870 oh        1 3EV     -0.596800
      3 C2          1.6230   -0.2320    0.0070 c3        1 3EV     -0.148400
      4 O2          3.2440   -0.9840    1.6500 oh        1 3EV     -0.597800
      5 C3          1.8790   -0.6390    1.4520 c3        1 3EV      0.150100
      6 O3         -9.7180    9.6300    2.8760 oh        1 3EV     -0.597800
      7 C4          1.5880    0.5170    2.4060 c3        1 3EV     -0.038200
      8 C5          0.2120    1.0560    2.1970 ce        1 3EV     -0.082200
      9 C6         -0.6000    1.2740    3.2520 cf        1 3EV     -0.113000
     10 C7         -1.9520    1.7780    3.1630 cf        1 3EV     -0.153000
     11 C8         -2.6400    2.3500    4.1650 c2        1 3EV     -0.077400
     12 C9         -2.1150    2.5650    5.5480 c3        1 3EV     -0.045200
     13 C10        -0.1490    1.3460    0.8080 ce        1 3EV     -0.094200
     14 C11        -2.4110    3.9480    6.1050 c3        1 3EV     -0.072400
     15 C12        -3.8340    4.4240    5.8740 c3        1 3EV     -0.067400
     16 C13        -4.2160    4.2900    4.4080 c3        1 3EV     -0.040000
     17 C14        -4.0550    2.7880    4.0380 c3        1 3EV     -0.037500
     18 C15        -4.8030    2.6540    2.7200 c3        1 3EV     -0.073400
     19 C16        -5.9600    3.6470    2.8350 c3        1 3EV     -0.078400
     20 C17        -5.7100    4.5220    4.0810 c3        1 3EV     -0.053700
     21 C18        -3.3300    5.1640    3.5370 c3        1 3EV     -0.083100
     22 C19        -0.7290    2.4900    0.4260 c2        1 3EV     -0.174000
     23 C20        -6.1470    5.9670    3.8620 c3        1 3EV     -0.054700
     24 C21        -5.8710    6.8290    5.0790 c3        1 3EV     -0.092100
     25 C22        -7.6380    6.0220    3.5310 c3        1 3EV     -0.079400
     26 C23        -8.0070    7.2900    2.7880 c3        1 3EV     -0.079400
     27 C24        -9.4830    7.3110    2.4590 c3        1 3EV     -0.064400
     28 C25        -9.9430    8.6460    1.8640 c3        1 3EV      0.147800
     29 C26       -11.4330    8.5750    1.5420 c3        1 3EV     -0.123100
     30 C27        -9.1590    9.0040    0.6070 c3        1 3EV     -0.123100
     31 H1         -0.5220   -0.6170    0.0210 h1        1 3EV      0.040700
     32 HO1         0.2380    0.0180   -2.0830 ho        1 3EV      0.401000
     33 H2          1.8130   -1.1020   -0.6730 hc        1 3EV      0.055200
     34 H2A         2.3290    0.5880   -0.2850 hc        1 3EV      0.055200
     35 HO2         3.4500   -1.6820    1.0170 ho        1 3EV      0.399000
     36 H3          1.2330   -1.5250    1.7150 h1        1 3EV      0.035700
     37 HO3       -10.0040   10.4740    2.5100 ho        1 3EV      0.397000
     38 H4          2.3380    1.3340    2.2260 hc        1 3EV      0.064700
     39 H4A         1.7300    0.1600    3.4600 hc        1 3EV      0.064700
     40 H6         -0.2330    1.0320    4.2660 ha        1 3EV      0.124000
     41 H7         -2.4340    1.6560    2.1740 ha        1 3EV      0.133000
     42 H9         -1.0060    2.4030    5.5840 hc        1 3EV      0.046700
     43 H9A        -2.5870    1.7920    6.2160 hc        1 3EV      0.046700
     44 H11        -1.7010    4.6860    5.6450 hc        1 3EV      0.040700
     45 H11A       -2.2060    3.9380    7.2090 hc        1 3EV      0.040700
     46 H12        -3.9200    5.4920    6.2040 hc        1 3EV      0.043200
     47 H12A       -4.5430    3.8220    6.5000 hc        1 3EV      0.043200
     48 H14        -4.6340    2.1890    4.8060 hc        1 3EV      0.055700
     49 H15        -4.1460    2.9190    1.8550 hc        1 3EV      0.045200
     50 H15A       -5.1700    1.6110    2.5640 hc        1 3EV      0.045200
     51 H16        -6.0150    4.2810    1.9150 hc        1 3EV      0.042200
     52 H16A       -6.9330    3.1060    2.9370 hc        1 3EV      0.042200
     53 H17        -6.3130    4.1110    4.9380 hc        1 3EV      0.046700
     54 H18        -3.7020    5.1650    2.4830 hc        1 3EV      0.037367
     55 H18A       -2.2810    4.7800    3.5350 hc        1 3EV      0.037367
     56 H18B       -3.3240    6.2140    3.9150 hc        1 3EV      0.037367
     57 H19        -0.9750    3.2860    1.1410 ha        1 3EV      0.126500
     58 H19A       -0.9790    2.6910   -0.6250 ha        1 3EV      0.126500
     59 H20        -5.5720    6.3850    2.9870 hc        1 3EV      0.050700
     60 H21        -4.7820    7.0650    5.1580 hc        1 3EV      0.035033
     61 H21A       -6.1920    6.3080    6.0130 hc        1 3EV      0.035033
     62 H21B       -6.4270    7.7950    5.0060 hc        1 3EV      0.035033
     63 H22        -8.2290    5.9560    4.4820 hc        1 3EV      0.040200
     64 H22A       -7.9280    5.1410    2.9010 hc        1 3EV      0.040200
     65 H23        -7.4070    7.3560    1.8410 hc        1 3EV      0.048700
     66 H23A       -7.7560    8.1920    3.4050 hc        1 3EV      0.048700
     67 H24       -10.0750    7.1240    3.3940 hc        1 3EV      0.047200
     68 H24A       -9.7270    6.5000    1.7260 hc        1 3EV      0.047200
     69 H26       -11.7890    9.5520    1.1380 hc        1 3EV      0.042367
     70 H26A      -11.6220    7.7810    0.7820 hc        1 3EV      0.042367
     71 H26B      -12.0120    8.3400    2.4670 hc        1 3EV      0.042367
     72 H27        -9.1690    8.1480   -0.1070 hc        1 3EV      0.042367
     73 H27A       -9.6120    9.8950    0.1080 hc        1 3EV      0.042367
     74 H27B       -8.1020    9.2460    0.8720 hc        1 3EV      0.042367
@<TRIPOS>BOND
     1    1    2 1   
     2    1    3 1   
     3    1   13 1   
     4    1   31 1   
     5    2   32 1   
     6    3    5 1   
     7    3   33 1   
     8    3   34 1   
     9    4    5 1   
    10    4   35 1   
    11    5    7 1   
    12    5   36 1   
    13    6   28 1   
    14    6   37 1   
    15    7    8 1   
    16    7   38 1   
    17    7   39 1   
    18    8    9 2   
    19    8   13 1   
    20    9   10 1   
    21    9   40 1   
    22   10   11 2   
    23   10   41 1   
    24   11   12 1   
    25   11   17 1   
    26   12   14 1   
    27   12   42 1   
    28   12   43 1   
    29   13   22 2   
    30   14   15 1   
    31   14   44 1   
    32   14   45 1   
    33   15   16 1   
    34   15   46 1   
    35   15   47 1   
    36   16   17 1   
    37   16   20 1   
    38   16   21 1   
    39   17   18 1   
    40   17   48 1   
    41   18   19 1   
    42   18   49 1   
    43   18   50 1   
    44   19   20 1   
    45   19   51 1   
    46   19   52 1   
    47   20   23 1   
    48   20   53 1   
    49   21   54 1   
    50   21   55 1   
    51   21   56 1   
    52   22   57 1   
    53   22   58 1   
    54   23   24 1   
    55   23   25 1   
    56   23   59 1   
    57   24   60 1   
    58   24   61 1   
    59   24   62 1   
    60   25   26 1   
    61   25   63 1   
    62   25   64 1   
    63   26   27 1   
    64   26   65 1   
    65   26   66 1   
    66   27   28 1   
    67   27   67 1   
    68   27   68 1   
    69   28   29 1   
    70   28   30 1   
    71   29   69 1   
    72   29   70 1   
    73   29   71 1   
    74   30   72 1   
    75   30   73 1   
    76   30   74 1   
@<TRIPOS>SUBSTRUCTURE
     1 3EV         1 TEMP              0 ****  ****    0 ROOT
