@<TRIPOS>MOLECULE
molecule
   74    76     1     0     0
SMALL
bcc


@<TRIPOS>ATOM
      1 C1           0.0000     0.0000     0.0000 c3         1 3EV       0.192300
      2 O1          -0.4820     0.0620    -1.3430 oh         1 3EV      -0.600800
      3 C2           1.5320     0.0000     0.0000 c3         1 3EV      -0.116400
      4 O2           3.4710    -0.1490     1.4310 oh         1 3EV      -0.604800
      5 C3           2.0500     0.0000     1.4380 c3         1 3EV       0.152100
      6 O3          -9.2650     9.7310     2.9450 oh         1 3EV      -0.604800
      7 C4           1.6800     1.3180     2.1240 c3         1 3EV      -0.041200
      8 C5           0.1730     1.4780     2.0700 ce         1 3EV      -0.090200
      9 C6          -0.5380     1.8420     3.1560 cf         1 3EV      -0.121000
     10 C7          -1.9940     1.9850     3.0650 cf         1 3EV      -0.165000
     11 C8          -2.6970     2.3450     4.1380 c2         1 3EV      -0.090400
     12 C9          -2.0450     2.6200     5.4850 c3         1 3EV      -0.045200
     13 C10         -0.4780     1.2150     0.7700 ce         1 3EV      -0.100200
     14 C11         -2.5120     3.9600     6.0480 c3         1 3EV      -0.079400
     15 C12         -4.0420     4.1030     5.9890 c3         1 3EV      -0.065400
     16 C13         -4.4560     3.9750     4.5420 c3         1 3EV      -0.060000
     17 C14         -4.1870     2.5140     4.1020 c3         1 3EV      -0.035500
     18 C15         -4.8480     2.4940     2.7230 c3         1 3EV      -0.078400
     19 C16         -6.1680     3.2790     2.9640 c3         1 3EV      -0.082400
     20 C17         -5.9220     4.1810     4.1900 c3         1 3EV      -0.054700
     21 C18         -3.6070     4.9190     3.6880 c3         1 3EV      -0.091100
     22 C19         -1.4380     2.0100     0.2960 c2         1 3EV      -0.187000
     23 C20         -6.1790     5.6430     3.8210 c3         1 3EV      -0.071700
     24 C21         -5.9600     6.5260     5.0510 c3         1 3EV      -0.095100
     25 C22         -7.6200     5.7980     3.3320 c3         1 3EV      -0.082400
     26 C23         -7.8420     7.2320     2.8450 c3         1 3EV      -0.082400
     27 C24         -9.2840     7.3880     2.3560 c3         1 3EV      -0.065400
     28 C25         -9.5040     8.8210     1.8690 c3         1 3EV       0.147800
     29 C26        -10.9460     8.9770     1.3810 c3         1 3EV      -0.120100
     30 C27         -8.5410     9.1240     0.7210 c3         1 3EV      -0.120100
     31 H1          -0.3630    -0.9000     0.4810 h1         1 3EV       0.038700
     32 HO1         -0.6250    -0.8120    -1.6670 ho         1 3EV       0.402000
     33 H2           1.8900    -0.8860    -0.5100 hc         1 3EV       0.060700
     34 H2A          1.8910     0.8860    -0.5100 hc         1 3EV       0.060700
     35 HO2          3.7030    -0.9750     1.8220 ho         1 3EV       0.401000
     36 H3           1.6010    -0.8230     1.9800 h1         1 3EV       0.030700
     37 HO3         -9.6950    10.5510     2.7650 ho         1 3EV       0.401000
     38 H4           2.1520     2.1440     1.6040 hc         1 3EV       0.061200
     39 H4A          2.0070     1.2960     3.1570 hc         1 3EV       0.061200
     40 H6          -0.0340     2.0280     4.0970 ha         1 3EV       0.134000
     41 H7          -2.4980     1.7990     2.1240 ha         1 3EV       0.148000
     42 H9          -0.9690     2.6420     5.3620 hc         1 3EV       0.049200
     43 H9A         -2.3130     1.8310     6.1780 hc         1 3EV       0.049200
     44 H11         -2.0620     4.7600     5.4720 hc         1 3EV       0.043200
     45 H11A        -2.1910     4.0390     7.0800 hc         1 3EV       0.043200
     46 H12         -4.3340     5.0740     6.3700 hc         1 3EV       0.045200
     47 H12A        -4.5060     3.3180     6.5740 hc         1 3EV       0.045200
     48 H14         -4.6730     1.8160     4.7740 hc         1 3EV       0.066700
     49 H15         -5.0600     1.4770     2.4150 hc         1 3EV       0.047700
     50 H15A        -4.2280     3.0020     1.9940 hc         1 3EV       0.047700
     51 H16         -6.9770     2.5890     3.1680 hc         1 3EV       0.044700
     52 H16A        -6.4000     3.8870     2.0980 hc         1 3EV       0.044700
     53 H17         -6.5540     3.8750     5.0150 hc         1 3EV       0.054700
     54 H18         -4.0720     5.0430     2.7180 hc         1 3EV       0.039700
     55 H18A        -3.5330     5.8810     4.1790 hc         1 3EV       0.039700
     56 H18B        -2.6160     4.4990     3.5640 hc         1 3EV       0.039700
     57 H19         -1.7590     2.8720     0.8670 ha         1 3EV       0.128000
     58 H19A        -1.8970     1.7930    -0.6610 ha         1 3EV       0.128000
     59 H20         -5.4970     5.9420     3.0340 hc         1 3EV       0.060700
     60 H21         -6.7400     7.2750     5.1020 hc         1 3EV       0.037033
     61 H21A        -4.9950     7.0140     4.9770 hc         1 3EV       0.037033
     62 H21B        -5.9870     5.9140     5.9440 hc         1 3EV       0.037033
     63 H22         -7.8010     5.1080     2.5170 hc         1 3EV       0.041200
     64 H22A        -8.3030     5.5830     4.1460 hc         1 3EV       0.041200
     65 H23         -7.6610     7.9220     3.6610 hc         1 3EV       0.052200
     66 H23A        -7.1590     7.4470     2.0320 hc         1 3EV       0.052200
     67 H24         -9.4650     6.6980     1.5410 hc         1 3EV       0.047700
     68 H24A        -9.9660     7.1740     3.1690 hc         1 3EV       0.047700
     69 H26        -11.0920     9.9810     1.0010 hc         1 3EV       0.041700
     70 H26A       -11.1390     8.2610     0.5910 hc         1 3EV       0.041700
     71 H26B       -11.6270     8.7990     2.2040 hc         1 3EV       0.041700
     72 H27         -7.5710     9.3910     1.1240 hc         1 3EV       0.041700
     73 H27A        -8.9270     9.9490     0.1340 hc         1 3EV       0.041700
     74 H27B        -8.4420     8.2480     0.0910 hc         1 3EV       0.041700
@<TRIPOS>BOND
     1     1     2 1
     2     1     3 1
     3     1    13 1
     4     3     5 1
     5     4     5 1
     6     5     7 1
     7     6    28 1
     8     7     8 1
     9     8     9 2
    10     8    13 1
    11     9    10 1
    12    10    11 2
    13    11    12 1
    14    11    17 1
    15    12    14 1
    16    13    22 2
    17    14    15 1
    18    15    16 1
    19    16    17 1
    20    16    20 1
    21    16    21 1
    22    17    18 1
    23    18    19 1
    24    19    20 1
    25    20    23 1
    26    23    24 1
    27    23    25 1
    28    25    26 1
    29    26    27 1
    30    27    28 1
    31    28    29 1
    32    28    30 1
    33     1    31 1
    34     2    32 1
    35     3    33 1
    36     3    34 1
    37     4    35 1
    38     5    36 1
    39     6    37 1
    40     7    38 1
    41     7    39 1
    42     9    40 1
    43    10    41 1
    44    12    42 1
    45    12    43 1
    46    14    44 1
    47    14    45 1
    48    15    46 1
    49    15    47 1
    50    17    48 1
    51    18    49 1
    52    18    50 1
    53    19    51 1
    54    19    52 1
    55    20    53 1
    56    21    54 1
    57    21    55 1
    58    21    56 1
    59    22    57 1
    60    22    58 1
    61    23    59 1
    62    24    60 1
    63    24    61 1
    64    24    62 1
    65    25    63 1
    66    25    64 1
    67    26    65 1
    68    26    66 1
    69    27    67 1
    70    27    68 1
    71    29    69 1
    72    29    70 1
    73    29    71 1
    74    30    72 1
    75    30    73 1
    76    30    74 1
@<TRIPOS>SUBSTRUCTURE
     1 3EV         1 TEMP              0 ****  ****    0 ROOT
