@<TRIPOS>MOLECULE
molecule
   42    44     1     0     0
SMALL
bcc


@<TRIPOS>ATOM
      1 O3           0.0000     0.0000     0.0000 oh         1 3EW      -0.597800
      2 C4           1.5440    -3.9710     7.7070 ca         1 3EW       0.188900
      3 C5           1.2400    -3.8420     6.3640 ca         1 3EW       0.139600
      4 C6           1.6480    -2.6980     5.6530 ca         1 3EW      -0.061600
      5 C7           1.6950    -2.4250     4.1460 c          1 3EW       0.655700
      6 C8          -0.8560    -4.7310     5.5490 ca         1 3EW       0.244600
      7 N2           1.9870    -1.3220     3.4290 ns         1 3EW      -0.452400
      8 C9          -1.5040    -3.5580     5.9130 ca         1 3EW      -0.189000
      9 C10         -2.8700    -3.4450     5.7510 ca         1 3EW      -0.056000
     10 C11         -3.5950    -4.5010     5.2260 ca         1 3EW      -0.066900
     11 C12         -2.9540    -5.6710     4.8620 ca         1 3EW      -0.051000
     12 N3           3.3510    -1.0290     8.5530 na         1 3EW      -0.158300
     13 C13         -1.5850    -5.7880     5.0160 ca         1 3EW      -0.040600
     14 C14          3.3480    -1.6860     9.7420 cc         1 3EW       0.440700
     15 C15          1.9390     0.0000     1.4420 c3         1 3EW       0.109400
     16 N4           2.7000    -2.8100     9.6330 nd         1 3EW      -0.583100
     17 Br1         -5.4680    -4.3420     5.0050 br         1 3EW      -0.103100
     18 Cl1         -0.7810    -7.2540     4.5510 cl         1 3EW      -0.107400
     19 F1           1.1500    -5.0710     8.3860 f          1 3EW      -0.106900
     20 C3           2.2630    -2.9650     8.3570 ca         1 3EW       0.070400
     21 C17          3.9780     0.2660     8.2780 c3         1 3EW       0.038600
     22 C2           2.6760    -1.8240     7.6430 ca         1 3EW      -0.080200
     23 C1           2.3620    -1.6900     6.3030 ca         1 3EW      -0.147000
     24 O1           1.0660    -3.3320     3.6370 o          1 3EW      -0.561100
     25 O2           1.5610    -1.2200     2.0820 os         1 3EW      -0.161900
     26 C16          1.4290     0.0000     0.0000 c3         1 3EW       0.150400
     27 H1          -0.3140     0.0800    -0.8850 ho         1 3EW       0.407000
     28 H2           1.0000    -5.6730     5.4000 hn         1 3EW       0.469800
     29 H3           2.2630    -0.4810     3.8950 hn         1 3EW       0.311500
     30 H4          -0.9370    -2.7320     6.3240 ha         1 3EW       0.143000
     31 H5          -3.3750    -2.5300     6.0350 ha         1 3EW       0.143000
     32 H6          -3.5250    -6.4950     4.4490 ha         1 3EW       0.154000
     33 H7           3.8170    -1.3270    10.6500 h5         1 3EW       0.079800
     34 H8           1.5070     0.8370     1.9780 h1         1 3EW       0.039700
     35 H9           3.0180     0.0890     1.4440 h1         1 3EW       0.039700
     36 H10          3.2290     0.9600     7.9150 h1         1 3EW       0.055033
     37 H11          4.7490     0.1420     7.5280 h1         1 3EW       0.055033
     38 H12          4.4190     0.6540     9.1890 h1         1 3EW       0.055033
     39 H13          2.6770    -0.8090     5.7570 ha         1 3EW       0.126000
     40 H14          1.7900     0.8850    -0.5110 h1         1 3EW       0.037200
     41 H15          1.7900    -0.8850    -0.5110 h1         1 3EW       0.037200
     42 N1           0.5280    -4.8480     5.7120 nu         1 3EW      -0.671000
@<TRIPOS>BOND
     1    21    12 1
     2    12    14 1
     3    12    22 1
     4    14    16 2
     5    22    23 ar
     6    22    20 ar
     7    15    25 1
     8    15    26 1
     9    23     4 ar
    10    16    20 1
    11     7    25 1
    12     7     5 1
    13    20     2 ar
    14    26     1 1
    15     4     5 1
    16     4     3 ar
    17     5    24 2
    18     2     3 ar
    19     2    19 1
    20     3    42 1
    21     8     9 ar
    22     8     6 ar
    23     9    10 ar
    24    42     6 1
    25     6    13 ar
    26    10    17 1
    27    10    11 ar
    28    13    11 ar
    29    13    18 1
    30     1    27 1
    31    42    28 1
    32     7    29 1
    33     8    30 1
    34     9    31 1
    35    11    32 1
    36    14    33 1
    37    15    34 1
    38    15    35 1
    39    21    36 1
    40    21    37 1
    41    21    38 1
    42    23    39 1
    43    26    40 1
    44    26    41 1
@<TRIPOS>SUBSTRUCTURE
     1 3EW         1 TEMP              0 ****  ****    0 ROOT
