@<TRIPOS>MOLECULE
3EX
   45    48     1     0     0
SMALL
bcc


@<TRIPOS>ATOM
      1 O3          0.5480    1.2550    0.4710 os        1 3EX     -0.191300
      2 C4          5.5970   -0.6970   -0.4650 cc        1 3EX      0.414700
      3 C5          5.7300   -0.3390   -1.8020 cd        1 3EX     -0.292200
      4 O4          0.7380   -1.4050   -2.2760 oh        1 3EX     -0.610800
      5 C6          4.4520    0.2520   -2.1990 cd        1 3EX      0.076100
      6 N1          8.0520   -0.9440   -2.3660 n2        1 3EX     -0.756100
      7 C7          3.6350    0.2050   -1.0650 cc        1 3EX      0.196400
      8 C8          2.2480    0.5920   -0.8230 ce        1 3EX      0.505600
      9 N2          1.8180    0.9120    0.3750 n2        1 3EX     -0.436200
     10 C9          0.1160    1.5000    1.8320 c3        1 3EX      0.133700
     11 C10         3.8100    1.8140   -3.8700 c2        1 3EX      0.456300
     12 C11         3.6500    2.9940   -2.9380 c3        1 3EX     -0.136500
     13 C12         3.5460    4.3200   -3.6020 c2        1 3EX     -0.144200
     14 C13         3.0040    4.3750   -4.8090 cv        1 3EX     -0.107400
     15 C14         2.5690    3.1390   -5.5960 cy        1 3EX     -0.073500
     16 C15         3.5500    1.9920   -5.3920 c3        1 3EX      0.156300
     17 F1          4.7520    2.1750   -6.0550 f         1 3EX     -0.221300
     18 C16         2.9520    5.2580   -6.0110 cx        1 3EX     -0.091500
     19 C18         1.6510    5.1330   -6.7640 cx        1 3EX     -0.088400
     20 C17         2.6320    3.9990   -6.8780 cx        1 3EX     -0.125700
     21 C3          6.8880   -0.5100   -2.6650 cf        1 3EX      0.503800
     22 C2          7.2310   -1.8020    1.2140 c1        1 3EX     -0.066500
     23 O1          4.3190   -0.3810    0.0060 os        1 3EX     -0.307800
     24 C1          6.4730   -1.2900    0.4410 cg        1 3EX     -0.242000
     25 O2          1.5200    0.6950   -2.0110 os        1 3EX     -0.493400
     26 C19         0.3310   -0.0820   -2.1040 c3        1 3EX      0.331200
     27 H1          1.3290   -1.4470   -3.0400 ho        1 3EX      0.422000
     28 H2         -0.3030   -0.0540   -1.1810 h2        1 3EX      0.077700
     29 H3          0.2070    0.5730    2.4460 h1        1 3EX      0.052367
     30 H4          0.6980    2.3360    2.2860 h1        1 3EX      0.052367
     31 H5          2.7190    2.8100   -2.3240 hc        1 3EX      0.083200
     32 H6          3.9390    5.1890   -3.0580 ha        1 3EX      0.143000
     33 H7          4.5190    3.0110   -2.2230 hc        1 3EX      0.083200
     34 H8          3.0830    1.0440   -5.8000 h1        1 3EX      0.075700
     35 H9          1.5380    2.7850   -5.3590 hc        1 3EX      0.081700
     36 H10         3.6610    6.0720   -6.1660 hc        1 3EX      0.108700
     37 H11         0.7040    4.9890   -6.2140 hc        1 3EX      0.076700
     38 H12         1.5220    5.7850   -7.6490 hc        1 3EX      0.076700
     39 H13         3.0900    3.6400   -7.7970 hc        1 3EX      0.115700
     40 H14         6.7210   -0.2250   -3.7280 h4        1 3EX      0.038800
     41 H15         8.2050   -1.2050   -1.4130 hn        1 3EX      0.380400
     42 H16         7.9090   -2.2560    1.8940 ha        1 3EX      0.178500
     43 H17        -0.9550    1.7860    1.6860 h1        1 3EX      0.052367
     44 H18        -0.1890    0.3440   -3.0060 h2        1 3EX      0.077700
     45 N3          4.1560    0.6220   -3.5070 nf        1 3EX     -0.565100
@<TRIPOS>BOND
     1    1    9 1
     2    1   10 1
     3    2    3 2
     4    2   23 1
     5    2   24 1
     6    3    5 1
     7    3   21 1
     8    4   26 1
     9    4   27 1
    10    5    7 2
    11    5   45 1
    12    6   21 2
    13    6   41 1
    14    7    8 1
    15    7   23 1
    16    8    9 2
    17    8   25 1
    18   10   29 1
    19   10   30 1
    20   10   43 1
    21   11   12 1
    22   11   16 1
    23   11   45 2
    24   12   13 1
    25   12   31 1
    26   12   33 1
    27   13   14 2
    28   13   32 1
    29   14   15 1
    30   14   18 1
    31   15   16 1
    32   15   20 1
    33   15   35 1
    34   16   17 1
    35   16   34 1
    36   18   19 1
    37   18   20 1
    38   18   36 1
    39   19   20 1
    40   19   37 1
    41   19   38 1
    42   20   39 1
    43   21   40 1
    44   22   24 3
    45   22   42 1
    46   25   26 1
    47   26   28 1
    48   26   44 1
@<TRIPOS>SUBSTRUCTURE
     1 3EX         1 TEMP              0 ****  ****    0 ROOT
