@<TRIPOS>MOLECULE
3EY
   46    49     1     0     0
SMALL
bcc


@<TRIPOS>ATOM
      1 O3           0.0000     0.0000     0.0000 oh         1 3EY      -0.580800
      2 C4           2.0380    -2.4830     5.5710 cc         1 3EY      -0.261600
      3 C5           2.0060    -3.5920     7.7200 cd         1 3EY      -0.368300
      4 C6           2.9140    -2.8530     9.5720 cd         1 3EY       0.130700
      5 N1           2.7250    -2.5520     8.2710 na         1 3EY       0.553800
      6 C7           1.7870    -4.4980     8.7390 cc         1 3EY       0.017600
      7 C8           1.6960    -2.4240     4.1460 c          1 3EY       0.618700
      8 N2           2.3550    -4.0070     9.8390 nc         1 3EY      -0.476300
      9 C9          -0.3380    -4.9340     6.3030 ca         1 3EY       0.010600
     10 C10         -0.9250    -4.1300     7.2690 ca         1 3EY      -0.153000
     11 C11         -2.1750    -4.4480     7.7640 ca         1 3EY      -0.061000
     12 C12         -2.8420    -5.5660     7.2980 ca         1 3EY      -0.068300
     13 C13         -2.2610    -6.3710     6.3360 ca         1 3EY      -0.103000
     14 C14         -1.0070    -6.0620     5.8400 ca         1 3EY       0.052900
     15 C15         -4.2040    -5.9090     7.8430 cx         1 3EY      -0.049400
     16 N4           1.9880    -1.3210     3.4280 ns         1 3EY      -0.071400
     17 F1          -0.4390    -6.8480     4.8990 f          1 3EY      -0.126900
     18 C17         -4.3680    -7.2640     8.5340 cx         1 3EY      -0.082900
     19 C16         -4.9790    -7.0320     7.1500 cx         1 3EY      -0.082900
     20 C3           1.6490    -3.5750     6.3540 cd         1 3EY       0.181600
     21 C2           3.1070    -1.4720     7.5050 cd         1 3EY      -0.293300
     22 C1           2.8020    -1.4020     6.2020 cc         1 3EY      -0.042000
     23 O1           1.1480    -3.3710     3.6130 o          1 3EY      -0.636100
     24 O2           1.5610    -1.2210     2.0820 os         1 3EY      -0.250900
     25 C18          1.9390     0.0000     1.4430 c3         1 3EY       0.190400
     26 C19          1.4290     0.0000     0.0000 c3         1 3EY       0.230400
     27 H1          -0.3140     0.0830    -0.8850 ho         1 3EY       0.392000
     28 H2           3.4470    -2.2360    10.2860 h5         1 3EY       0.036800
     29 H3           1.2510    -5.4370     8.6580 h4         1 3EY       0.155000
     30 H4          -0.4030    -3.2540     7.6350 ha         1 3EY       0.124000
     31 H5          -2.6330    -3.8200     8.5190 ha         1 3EY       0.107000
     32 H6           1.3290    -5.1670     5.0680 hn         1 3EY       0.323800
     33 H7          -2.7850    -7.2470     5.9750 ha         1 3EY       0.128000
     34 H8          -4.8210    -5.1150     8.2480 hc         1 3EY       0.058700
     35 H9           2.5400    -0.5920     3.8340 hn         1 3EY       0.163500
     36 H10         -3.4830    -7.8880     8.5560 hc         1 3EY       0.047950
     37 H11         -5.0720    -7.2870     9.3580 hc         1 3EY       0.047950
     38 H12         -6.0560    -6.9130     7.1280 hc         1 3EY       0.047950
     39 H13         -4.4670    -7.5150     6.3260 hc         1 3EY       0.047950
     40 H14          3.6710    -0.6690     7.9640 h4         1 3EY       0.138000
     41 H15          3.1730    -0.5790     5.6030 ha         1 3EY       0.110000
     42 H16          3.0190     0.0890     1.4440 h1         1 3EY      -0.000800
     43 H17          1.5070     0.8370     1.9780 h1         1 3EY      -0.000800
     44 H18          1.7900     0.8850    -0.5110 h1         1 3EY      -0.004800
     45 H19          1.7900    -0.8840    -0.5110 h1         1 3EY      -0.004800
     46 N3           0.9280    -4.6150     5.8000 nu         1 3EY      -0.197000
@<TRIPOS>BOND
     1     1    26 1   
     2     1    27 1   
     3     2     7 1   
     4     2    20 2   
     5     2    22 1   
     6     3     5 1   
     7     3     6 2   
     8     3    20 1   
     9     4     5 1   
    10     4     8 2   
    11     4    28 1   
    12     5    21 1   
    13     6     8 1   
    14     6    29 1   
    15     7    16 1   
    16     7    23 2   
    17     9    10 ar  
    18     9    14 ar  
    19     9    46 1   
    20    10    11 ar  
    21    10    30 1   
    22    11    12 ar  
    23    11    31 1   
    24    12    13 ar  
    25    12    15 1   
    26    13    14 ar  
    27    13    33 1   
    28    14    17 1   
    29    15    18 1   
    30    15    19 1   
    31    15    34 1   
    32    16    24 1   
    33    16    35 1   
    34    18    19 1   
    35    18    36 1   
    36    18    37 1   
    37    19    38 1   
    38    19    39 1   
    39    20    46 1   
    40    21    22 2   
    41    21    40 1   
    42    22    41 1   
    43    24    25 1   
    44    25    26 1   
    45    25    42 1   
    46    25    43 1   
    47    26    44 1   
    48    26    45 1   
    49    32    46 1   
@<TRIPOS>SUBSTRUCTURE
     1 3EY         1 TEMP              0 ****  ****    0 ROOT
