@<TRIPOS>MOLECULE
molecule
   46    49     1     0     0
SMALL
bcc


@<TRIPOS>ATOM
      1 O3           0.0000     0.0000     0.0000 oh         1 3EY      -0.596800
      2 C4           2.0380    -2.4830     5.5710 cc         1 3EY      -0.215600
      3 C5           2.0060    -3.5920     7.7200 cd         1 3EY      -0.172300
      4 C6           2.9140    -2.8530     9.5720 cd         1 3EY       0.351700
      5 N1           2.7250    -2.5520     8.2710 na         1 3EY      -0.021200
      6 C7           1.7870    -4.4980     8.7390 cc         1 3EY       0.028600
      7 C8           1.6960    -2.4240     4.1460 c          1 3EY       0.701700
      8 N2           2.3550    -4.0070     9.8390 nc         1 3EY      -0.568300
      9 C9          -0.3380    -4.9340     6.3030 ca         1 3EY       0.153600
     10 C10         -0.9250    -4.1300     7.2690 ca         1 3EY      -0.169000
     11 C11         -2.1750    -4.4480     7.7640 ca         1 3EY      -0.094000
     12 C12         -2.8420    -5.5660     7.2980 ca         1 3EY      -0.064300
     13 C13         -2.2610    -6.3710     6.3360 ca         1 3EY      -0.132000
     14 C14         -1.0070    -6.0620     5.8400 ca         1 3EY       0.079900
     15 C15         -4.2040    -5.9090     7.8430 cx         1 3EY      -0.086400
     16 N4           1.9880    -1.3210     3.4280 ns         1 3EY      -0.473400
     17 F1          -0.4390    -6.8480     4.8990 f          1 3EY      -0.141900
     18 C17         -4.3680    -7.2640     8.5340 cx         1 3EY      -0.133900
     19 C16         -4.9790    -7.0320     7.1500 cx         1 3EY      -0.133900
     20 C3           1.6490    -3.5750     6.3540 cd         1 3EY       0.293600
     21 C2           3.1070    -1.4720     7.5050 cd         1 3EY      -0.102300
     22 C1           2.8020    -1.4020     6.2020 cc         1 3EY      -0.120000
     23 O1           1.1480    -3.3710     3.6130 o          1 3EY      -0.579100
     24 O2           1.5610    -1.2210     2.0820 os         1 3EY      -0.164900
     25 C18          1.9390     0.0000     1.4430 c3         1 3EY       0.108400
     26 C19          1.4290     0.0000     0.0000 c3         1 3EY       0.149400
     27 H1          -0.3140     0.0830    -0.8850 ho         1 3EY       0.405000
     28 H2           3.4470    -2.2360    10.2860 h5         1 3EY       0.078800
     29 H3           1.2510    -5.4370     8.6580 h4         1 3EY       0.197000
     30 H4          -0.4030    -3.2540     7.6350 ha         1 3EY       0.147000
     31 H5          -2.6330    -3.8200     8.5190 ha         1 3EY       0.137000
     32 H6           1.3290    -5.1670     5.0680 hn         1 3EY       0.485800
     33 H7          -2.7850    -7.2470     5.9750 ha         1 3EY       0.149000
     34 H8          -4.8210    -5.1150     8.2480 hc         1 3EY       0.086700
     35 H9           2.5400    -0.5920     3.8340 hn         1 3EY       0.316500
     36 H10         -3.4830    -7.8880     8.5560 hc         1 3EY       0.076700
     37 H11         -5.0720    -7.2870     9.3580 hc         1 3EY       0.076700
     38 H12         -6.0560    -6.9130     7.1280 hc         1 3EY       0.076700
     39 H13         -4.4670    -7.5150     6.3260 hc         1 3EY       0.076700
     40 H14          3.6710    -0.6690     7.9640 h4         1 3EY       0.162000
     41 H15          3.1730    -0.5790     5.6030 ha         1 3EY       0.142000
     42 H16          3.0190     0.0890     1.4440 h1         1 3EY       0.039200
     43 H17          1.5070     0.8370     1.9780 h1         1 3EY       0.039200
     44 H18          1.7900     0.8850    -0.5110 h1         1 3EY       0.035700
     45 H19          1.7900    -0.8840    -0.5110 h1         1 3EY       0.035700
     46 N3           0.9280    -4.6150     5.8000 nu         1 3EY      -0.663000
@<TRIPOS>BOND
     1    18    19 1
     2    18    15 1
     3    19    15 1
     4    17    14 1
     5    13    14 ar
     6    13    12 ar
     7    15    12 1
     8    14     9 ar
     9    12    11 ar
    10     9    46 1
    11     9    10 ar
    12    11    10 ar
    13    46    20 1
    14     1    26 1
    15    23     7 2
    16     6     3 2
    17     6     8 1
    18    26    25 1
    19    20     3 1
    20    20     2 2
    21     3     5 1
    22     7     2 1
    23     7    16 1
    24     8     4 2
    25     2    22 1
    26    24    25 1
    27    24    16 1
    28     5     4 1
    29     5    21 1
    30    22    21 2
    31     1    27 1
    32     4    28 1
    33     6    29 1
    34    10    30 1
    35    11    31 1
    36    46    32 1
    37    13    33 1
    38    15    34 1
    39    16    35 1
    40    18    36 1
    41    18    37 1
    42    19    38 1
    43    19    39 1
    44    21    40 1
    45    22    41 1
    46    25    42 1
    47    25    43 1
    48    26    44 1
    49    26    45 1
@<TRIPOS>SUBSTRUCTURE
     1 3EY         1 TEMP              0 ****  ****    0 ROOT
