@<TRIPOS>MOLECULE
3EZ
   74    79     1     0     0
SMALL
bcc


@<TRIPOS>ATOM
      1 NBA          0.0000     0.0000     0.0000 nu         1 3EZ      -0.545700
      2 CAW          1.4710     0.0000     0.0000 c3         1 3EZ       0.165300
      3 CAS          1.9300     0.0000     1.4660 c3         1 3EZ      -0.096400
      4 CAU          1.3700     1.2510     2.1490 c3         1 3EZ       0.172800
      5 NAY         -0.0580     1.3840     1.8830 n2         1 3EZ      -0.636400
      6 CBG         -0.6610     0.8130     0.8930 ce         1 3EZ       0.534300
      7 CBM         -2.1120     1.0460     0.7100 ca         1 3EZ      -0.112400
      8 CAQ         -2.8060     1.8690     1.5970 ca         1 3EZ      -0.056500
      9 CAG         -2.7880     0.4470    -0.3530 ca         1 3EZ      -0.119500
     10 CAC         -4.1400     0.6660    -0.5220 ca         1 3EZ      -0.085000
     11 CAE         -4.8300     1.4770     0.3600 ca         1 3EZ      -0.131500
     12 CBI         -4.1640     2.0810     1.4190 ca         1 3EZ      -0.092900
     13 NBC         -4.8640     2.9060     2.3060 ns         1 3EZ      -0.038100
     14 CBE         -4.2510     3.9680     2.8660 c          1 3EZ       0.581700
     15 OAA         -3.1210     4.2640     2.5300 o          1 3EZ      -0.620100
     16 CBK         -4.9530     4.7720     3.8870 ca         1 3EZ      -0.159600
     17 CAJ         -4.3180     5.8730     4.4670 ca         1 3EZ      -0.054500
     18 CAN         -4.9740     6.6220     5.4190 ca         1 3EZ      -0.108000
     19 CAI         -6.2540     4.4350     4.2690 ca         1 3EZ      -0.054500
     20 CAM         -6.9080     5.1860     5.2210 ca         1 3EZ      -0.108000
     21 CBO         -6.2700     6.2820     5.8040 cp         1 3EZ      -0.014000
     22 CBP         -6.9740     7.0880     6.8300 cp         1 3EZ      -0.014000
     23 CAP         -6.3410     8.1900     7.4050 ca         1 3EZ      -0.108000
     24 CAL         -6.9950     8.9400     8.3580 ca         1 3EZ      -0.054500
     25 CAO         -8.2720     6.7480     7.2140 ca         1 3EZ      -0.108000
     26 CAK         -8.9260     7.4960     8.1660 ca         1 3EZ      -0.054500
     27 CBL         -8.2910     8.5970     8.7470 ca         1 3EZ      -0.159600
     28 CBF         -8.9920     9.4010     9.7690 c          1 3EZ       0.581700
     29 OAB         -8.4410    10.3610    10.2720 o          1 3EZ      -0.620100
     30 NBD        -10.2440     9.0700    10.1450 ns         1 3EZ      -0.038100
     31 CBJ        -10.9480     9.8900    11.0320 ca         1 3EZ      -0.092900
     32 CAR        -10.7550    11.2630    11.0080 ca         1 3EZ      -0.056500
     33 CAF        -11.8450     9.3300    11.9350 ca         1 3EZ      -0.131500
     34 CAD        -12.5440    10.1370    12.8120 ca         1 3EZ      -0.085000
     35 CAH        -12.3540    11.5050    12.7980 ca         1 3EZ      -0.119500
     36 CBN        -11.4600    12.0760    11.8930 ca         1 3EZ      -0.112400
     37 CBH        -11.2590    13.5430    11.8740 ce         1 3EZ       0.534300
     38 NAZ        -10.4250    14.0480    11.0260 n2         1 3EZ      -0.636400
     39 CAV        -10.1310    15.4730    10.9270 c3         1 3EZ       0.172800
     40 CAT        -11.2580    16.2990    11.5500 c3         1 3EZ      -0.096400
     41 CAX        -11.5700    15.7290    12.9410 c3         1 3EZ       0.165300
     42 NBB        -11.9730    14.3250    12.7570 nu         1 3EZ      -0.545700
     43 H1          -0.5100    -0.5800    -0.6370 hn         1 3EZ       0.301800
     44 H2           1.8380     0.8880    -0.4990 h1         1 3EZ       0.021950
     45 H3           1.8380    -0.8880    -0.4990 h1         1 3EZ       0.021950
     46 H4           3.0060     0.1220     1.4470 hc         1 3EZ       0.036200
     47 H5           1.4420    -0.8450     1.9360 hc         1 3EZ       0.036200
     48 H6           1.4570     1.0710     3.2140 h1         1 3EZ       0.026450
     49 H7           1.8430     2.0930     1.6580 h1         1 3EZ       0.026450
     50 H8          -2.2850     2.3400     2.4220 ha         1 3EZ       0.166500
     51 H9          -2.2520    -0.1890    -1.0460 ha         1 3EZ       0.101000
     52 H10         -4.6640     0.1980    -1.3470 ha         1 3EZ       0.102000
     53 H11         -5.8910     1.6440     0.2220 ha         1 3EZ       0.102500
     54 H12         -5.8280     2.7230     2.5040 hn         1 3EZ       0.171500
     55 H13         -3.3110     6.1370     4.1680 ha         1 3EZ       0.115750
     56 H14         -4.4810     7.4740     5.8710 ha         1 3EZ       0.116000
     57 H15         -6.7490     3.5850     3.8160 ha         1 3EZ       0.115750
     58 H16         -7.9160     4.9240     5.5190 ha         1 3EZ       0.116000
     59 H17         -5.3360     8.4560     7.1020 ha         1 3EZ       0.116000
     60 H18         -6.5030     9.7940     8.8060 ha         1 3EZ       0.115750
     61 H19         -8.7640     5.8950     6.7640 ha         1 3EZ       0.116000
     62 H20         -9.9330     7.2310     8.4660 ha         1 3EZ       0.115750
     63 H21        -10.6270     8.1860     9.8730 hn         1 3EZ       0.171500
     64 H22        -10.0600    11.7010    10.3030 ha         1 3EZ       0.166500
     65 H23        -11.9970     8.2580    11.9500 ha         1 3EZ       0.102500
     66 H24        -13.2400     9.6960    13.5150 ha         1 3EZ       0.102000
     67 H25        -12.9040    12.1350    13.4870 ha         1 3EZ       0.101000
     68 H26         -9.2050    15.6820    11.4510 h1         1 3EZ       0.026450
     69 H27        -10.0260    15.7430     9.8830 h1         1 3EZ       0.026450
     70 H28        -12.1370    16.1170    10.9430 hc         1 3EZ       0.036200
     71 H29        -10.8520    17.2900    11.7130 hc         1 3EZ       0.036200
     72 H30        -12.4470    16.2550    13.2980 h1         1 3EZ       0.021950
     73 H31        -10.6320    15.7090    13.4810 h1         1 3EZ       0.021950
     74 H32        -12.7500    13.9460    13.2620 hn         1 3EZ       0.301800
@<TRIPOS>BOND
     1     1     2 1   
     2     1     6 1   
     3     1    43 1   
     4     2     3 1   
     5     2    44 1   
     6     2    45 1   
     7     3     4 1   
     8     3    46 1   
     9     3    47 1   
    10     4     5 1   
    11     4    48 1   
    12     4    49 1   
    13     5     6 2   
    14     6     7 1   
    15     7     8 ar  
    16     7     9 ar  
    17     8    12 ar  
    18     8    50 1   
    19     9    10 ar  
    20     9    51 1   
    21    10    11 ar  
    22    10    52 1   
    23    11    12 ar  
    24    11    53 1   
    25    12    13 1   
    26    13    14 1   
    27    13    54 1   
    28    14    15 2   
    29    14    16 1   
    30    16    17 ar  
    31    16    19 ar  
    32    17    18 ar  
    33    17    55 1   
    34    18    21 ar  
    35    18    56 1   
    36    19    20 ar  
    37    19    57 1   
    38    20    21 ar  
    39    20    58 1   
    40    21    22 1   
    41    22    23 ar  
    42    22    25 ar  
    43    23    24 ar  
    44    23    59 1   
    45    24    27 ar  
    46    24    60 1   
    47    25    26 ar  
    48    25    61 1   
    49    26    27 ar  
    50    26    62 1   
    51    27    28 1   
    52    28    29 2   
    53    28    30 1   
    54    30    31 1   
    55    30    63 1   
    56    31    32 ar  
    57    31    33 ar  
    58    32    36 ar  
    59    32    64 1   
    60    33    34 ar  
    61    33    65 1   
    62    34    35 ar  
    63    34    66 1   
    64    35    36 ar  
    65    35    67 1   
    66    36    37 1   
    67    37    38 2   
    68    37    42 1   
    69    38    39 1   
    70    39    40 1   
    71    39    68 1   
    72    39    69 1   
    73    40    41 1   
    74    40    70 1   
    75    40    71 1   
    76    41    42 1   
    77    41    72 1   
    78    41    73 1   
    79    42    74 1   
@<TRIPOS>SUBSTRUCTURE
     1 3EZ         1 TEMP              0 ****  ****    0 ROOT
