@<TRIPOS>MOLECULE
molecule
   74    79     1     0     0
SMALL
bcc


@<TRIPOS>ATOM
      1 NBA          0.0000     0.0000     0.0000 nu         1 3EZ      -0.934700
      2 CAW          1.4710     0.0000     0.0000 c3         1 3EZ       0.225300
      3 CAS          1.9300     0.0000     1.4660 c3         1 3EZ      -0.150900
      4 CAU          1.3700     1.2510     2.1490 c3         1 3EZ       0.134300
      5 NAY         -0.0580     1.3840     1.8830 n2         1 3EZ      -0.701900
      6 CBG         -0.6610     0.8130     0.8930 ce         1 3EZ       0.690300
      7 CBM         -2.1120     1.0460     0.7100 ca         1 3EZ      -0.107400
      8 CAQ         -2.8060     1.8690     1.5970 ca         1 3EZ      -0.079000
      9 CAG         -2.7880     0.4470    -0.3530 ca         1 3EZ      -0.137500
     10 CAC         -4.1400     0.6660    -0.5220 ca         1 3EZ      -0.115500
     11 CAE         -4.8300     1.4770     0.3600 ca         1 3EZ      -0.157500
     12 CBI         -4.1640     2.0810     1.4190 ca         1 3EZ       0.051100
     13 NBC         -4.8640     2.9060     2.3060 ns         1 3EZ      -0.475100
     14 CBE         -4.2510     3.9680     2.8660 c          1 3EZ       0.671200
     15 OAA         -3.1210     4.2640     2.5300 o          1 3EZ      -0.578600
     16 CBK         -4.9530     4.7720     3.8870 ca         1 3EZ      -0.145600
     17 CAJ         -4.3180     5.8730     4.4670 ca         1 3EZ      -0.083000
     18 CAN         -4.9740     6.6220     5.4190 ca         1 3EZ      -0.127000
     19 CAI         -6.2540     4.4350     4.2690 ca         1 3EZ      -0.083000
     20 CAM         -6.9080     5.1860     5.2210 ca         1 3EZ      -0.127000
     21 CBO         -6.2700     6.2820     5.8040 cp         1 3EZ      -0.017000
     22 CBP         -6.9740     7.0880     6.8300 cp         1 3EZ      -0.017000
     23 CAP         -6.3410     8.1900     7.4050 ca         1 3EZ      -0.127000
     24 CAL         -6.9950     8.9400     8.3580 ca         1 3EZ      -0.083000
     25 CAO         -8.2720     6.7480     7.2140 ca         1 3EZ      -0.127000
     26 CAK         -8.9260     7.4960     8.1660 ca         1 3EZ      -0.083000
     27 CBL         -8.2910     8.5970     8.7470 ca         1 3EZ      -0.145600
     28 CBF         -8.9920     9.4010     9.7690 c          1 3EZ       0.671200
     29 OAB         -8.4410    10.3610    10.2720 o          1 3EZ      -0.578600
     30 NBD        -10.2440     9.0700    10.1450 ns         1 3EZ      -0.475100
     31 CBJ        -10.9480     9.8900    11.0320 ca         1 3EZ       0.051100
     32 CAR        -10.7550    11.2630    11.0080 ca         1 3EZ      -0.079000
     33 CAF        -11.8450     9.3300    11.9350 ca         1 3EZ      -0.157500
     34 CAD        -12.5440    10.1370    12.8120 ca         1 3EZ      -0.115500
     35 CAH        -12.3540    11.5050    12.7980 ca         1 3EZ      -0.137500
     36 CBN        -11.4600    12.0760    11.8930 ca         1 3EZ      -0.107400
     37 CBH        -11.2590    13.5430    11.8740 ce         1 3EZ       0.690300
     38 NAZ        -10.4250    14.0480    11.0260 n2         1 3EZ      -0.701900
     39 CAV        -10.1310    15.4730    10.9270 c3         1 3EZ       0.134300
     40 CAT        -11.2580    16.2990    11.5500 c3         1 3EZ      -0.150900
     41 CAX        -11.5700    15.7290    12.9410 c3         1 3EZ       0.225300
     42 NBB        -11.9730    14.3250    12.7570 nu         1 3EZ      -0.934700
     43 H1          -0.5100    -0.5800    -0.6370 hn         1 3EZ       0.433800
     44 H2           1.8380     0.8880    -0.4990 h1         1 3EZ       0.049450
     45 H3           1.8380    -0.8880    -0.4990 h1         1 3EZ       0.049450
     46 H4           3.0060     0.1220     1.4470 hc         1 3EZ       0.062450
     47 H5           1.4420    -0.8450     1.9360 hc         1 3EZ       0.062450
     48 H6           1.4570     1.0710     3.2140 h1         1 3EZ       0.061950
     49 H7           1.8430     2.0930     1.6580 h1         1 3EZ       0.061950
     50 H8          -2.2850     2.3400     2.4220 ha         1 3EZ       0.190000
     51 H9          -2.2520    -0.1890    -1.0460 ha         1 3EZ       0.124500
     52 H10         -4.6640     0.1980    -1.3470 ha         1 3EZ       0.132000
     53 H11         -5.8910     1.6440     0.2220 ha         1 3EZ       0.127500
     54 H12         -5.8280     2.7230     2.5040 hn         1 3EZ       0.324000
     55 H13         -3.3110     6.1370     4.1680 ha         1 3EZ       0.144500
     56 H14         -4.4810     7.4740     5.8710 ha         1 3EZ       0.139750
     57 H15         -6.7490     3.5850     3.8160 ha         1 3EZ       0.144500
     58 H16         -7.9160     4.9240     5.5190 ha         1 3EZ       0.139750
     59 H17         -5.3360     8.4560     7.1020 ha         1 3EZ       0.139750
     60 H18         -6.5030     9.7940     8.8060 ha         1 3EZ       0.144500
     61 H19         -8.7640     5.8950     6.7640 ha         1 3EZ       0.139750
     62 H20         -9.9330     7.2310     8.4660 ha         1 3EZ       0.144500
     63 H21        -10.6270     8.1860     9.8730 hn         1 3EZ       0.324000
     64 H22        -10.0600    11.7010    10.3030 ha         1 3EZ       0.190000
     65 H23        -11.9970     8.2580    11.9500 ha         1 3EZ       0.127500
     66 H24        -13.2400     9.6960    13.5150 ha         1 3EZ       0.132000
     67 H25        -12.9040    12.1350    13.4870 ha         1 3EZ       0.124500
     68 H26         -9.2050    15.6820    11.4510 h1         1 3EZ       0.061950
     69 H27        -10.0260    15.7430     9.8830 h1         1 3EZ       0.061950
     70 H28        -12.1370    16.1170    10.9430 hc         1 3EZ       0.062450
     71 H29        -10.8520    17.2900    11.7130 hc         1 3EZ       0.062450
     72 H30        -12.4470    16.2550    13.2980 h1         1 3EZ       0.049450
     73 H31        -10.6320    15.7090    13.4810 h1         1 3EZ       0.049450
     74 H32        -12.7500    13.9460    13.2620 hn         1 3EZ       0.433800
@<TRIPOS>BOND
     1     3     4 1
     2     3     2 1
     3     4     5 1
     4     2     1 1
     5     1     6 1
     6     5     6 2
     7     6     7 1
     8     7     9 ar
     9     7     8 ar
    10     9    10 ar
    11     8    12 ar
    12    10    11 ar
    13    12    11 ar
    14    12    13 1
    15    13    14 1
    16    15    14 2
    17    14    16 1
    18    16    17 ar
    19    16    19 ar
    20    17    18 ar
    21    19    20 ar
    22    18    21 ar
    23    20    21 ar
    24    21    22 1
    25    22    25 ar
    26    22    23 ar
    27    25    26 ar
    28    23    24 ar
    29    26    27 ar
    30    24    27 ar
    31    27    28 1
    32    28    29 2
    33    28    30 1
    34    30    31 1
    35    31    33 ar
    36    31    32 ar
    37    33    34 ar
    38    32    36 ar
    39    34    35 ar
    40    36    35 ar
    41    36    37 1
    42    37    38 2
    43    37    42 1
    44    38    39 1
    45    42    41 1
    46    39    40 1
    47    41    40 1
    48     1    43 1
    49     2    44 1
    50     2    45 1
    51     3    46 1
    52     3    47 1
    53     4    48 1
    54     4    49 1
    55     8    50 1
    56     9    51 1
    57    10    52 1
    58    11    53 1
    59    13    54 1
    60    17    55 1
    61    18    56 1
    62    19    57 1
    63    20    58 1
    64    23    59 1
    65    24    60 1
    66    25    61 1
    67    26    62 1
    68    30    63 1
    69    32    64 1
    70    33    65 1
    71    34    66 1
    72    35    67 1
    73    39    68 1
    74    39    69 1
    75    40    70 1
    76    40    71 1
    77    41    72 1
    78    41    73 1
    79    42    74 1
@<TRIPOS>SUBSTRUCTURE
     1 3EZ         1 TEMP              0 ****  ****    0 ROOT
