@<TRIPOS>MOLECULE
3F0
   16    16     1     0     0
SMALL
bcc


@<TRIPOS>ATOM
      1 OAB          0.0000     0.0000     0.0000 o          1 3F0      -0.888300
      2 CAH          1.2150     0.0000     0.0000 c          1 3F0       0.993200
      3 OAC          1.8900     0.0000     1.1660 o          1 3F0      -0.888300
      4 CAK          1.9510    -0.0040    -1.2760 ca         1 3F0      -0.170600
      5 CAG          3.3440     0.1200    -1.2860 ca         1 3F0      -0.028000
      6 CAE          4.0270     0.1150    -2.4810 ca         1 3F0      -0.190000
      7 CAF          3.3410    -0.0130    -3.6790 ca         1 3F0      -0.110000
      8 CAJ          1.9660    -0.1370    -3.6890 ca         1 3F0      -0.039100
      9 FAD          1.3060    -0.2620    -4.8610 f          1 3F0      -0.152900
     10 CAI          1.2590    -0.1400    -2.4890 ca         1 3F0       0.066600
     11 NAA         -0.1250    -0.2650    -2.4950 nv         1 3F0      -0.465200
     12 H2           3.8860     0.2210    -0.3530 ha         1 3F0       0.125000
     13 H3           5.1060     0.2120    -2.4860 ha         1 3F0       0.087000
     14 H4           3.8880    -0.0160    -4.6150 ha         1 3F0       0.089000
     15 H5          -0.6520     0.0420    -3.2880 hn         1 3F0       0.285800
     16 H6          -0.5910    -0.6980    -1.7220 hn         1 3F0       0.285800
@<TRIPOS>BOND
     1     1     2 1   
     2     2     3 1   
     3     2     4 1   
     4     4     5 ar  
     5     4    10 ar  
     6     5     6 ar  
     7     5    12 1   
     8     6     7 ar  
     9     6    13 1   
    10     7     8 ar  
    11     7    14 1   
    12     8     9 1   
    13     8    10 ar  
    14    10    11 1   
    15    11    15 1   
    16    11    16 1   
@<TRIPOS>SUBSTRUCTURE
     1 3F0         1 TEMP              0 ****  ****    0 ROOT
