@<TRIPOS>MOLECULE
molecule
   16    16     1     0     0
SMALL
bcc


@<TRIPOS>ATOM
      1 OAB          0.0000     0.0000     0.0000 o          1 3F0      -0.841800
      2 CAH          1.2150     0.0000     0.0000 c          1 3F0       0.897200
      3 OAC          1.8900     0.0000     1.1660 o          1 3F0      -0.841800
      4 CAK          1.9510    -0.0040    -1.2760 ca         1 3F0      -0.161600
      5 CAG          3.3440     0.1200    -1.2860 ca         1 3F0      -0.066000
      6 CAE          4.0270     0.1150    -2.4810 ca         1 3F0      -0.201000
      7 CAF          3.3410    -0.0130    -3.6790 ca         1 3F0      -0.146000
      8 CAJ          1.9660    -0.1370    -3.6890 ca         1 3F0       0.003900
      9 FAD          1.3060    -0.2620    -4.8610 f          1 3F0      -0.175900
     10 CAI          1.2590    -0.1400    -2.4890 ca         1 3F0       0.197600
     11 NAA         -0.1250    -0.2650    -2.4950 nv         1 3F0      -0.911200
     12 H2           3.8860     0.2210    -0.3530 ha         1 3F0       0.153000
     13 H3           5.1060     0.2120    -2.4860 ha         1 3F0       0.107000
     14 H4           3.8880    -0.0160    -4.6150 ha         1 3F0       0.111000
     15 H5          -0.6520     0.0420    -3.2880 hn         1 3F0       0.438300
     16 H6          -0.5910    -0.6980    -1.7220 hn         1 3F0       0.438300
@<TRIPOS>BOND
     1     9     8 1   
     2     7     8 ar  
     3     7     6 ar  
     4     8    10 ar  
     5     6     5 ar  
     6    10    11 1   
     7    10     4 ar  
     8     5     4 ar  
     9     4     2 1   
    10     2     1 1   
    11     2     3 1   
    12     5    12 1   
    13     6    13 1   
    14     7    14 1   
    15    11    15 1   
    16    11    16 1   
@<TRIPOS>SUBSTRUCTURE
     1 3F0         1 TEMP              0 ****  ****    0 ROOT
