@<TRIPOS>MOLECULE
3F1
   48    50     1     0     0
SMALL
bcc


@<TRIPOS>ATOM
      1 C1           0.0000     0.0000     0.0000 c3         1 3F1       0.057200
      2 C2           1.5070     0.0000     0.0000 ca         1 3F1      -0.041300
      3 C3           2.1980     0.0000     1.1980 ca         1 3F1      -0.137500
      4 C4           3.5800    -0.0000     1.1990 ca         1 3F1       0.009500
      5 O5           6.4360     0.5450    -1.2470 o          1 3F1      -0.620800
      6 C6           8.7600    -0.3230    -0.3970 c3         1 3F1       0.086200
      7 C7           2.1990    -0.0060    -1.1960 ca         1 3F1      -0.137500
      8 C8           3.5810    -0.0050    -1.1960 ca         1 3F1       0.009500
      9 C9           4.2720    -0.0010     0.0020 ca         1 3F1      -0.101500
     10 S10          6.0340    -0.0000     0.0030 sy         1 3F1       1.130700
     11 N11          6.5250    -1.5810     0.0030 ne         1 3F1      -0.435200
     12 S12          7.9810    -1.9120     0.0050 sx         1 3F1      -0.197200
     13 C13          8.1790    -2.8360    -1.4820 ca         1 3F1      -0.001500
     14 C14          9.3080    -3.6140    -1.6660 ca         1 3F1       0.025000
     15 C15          9.4650    -4.3400    -2.8310 ca         1 3F1      -0.199500
     16 O16          6.4350     0.5450     1.2530 o          1 3F1      -0.620800
     17 C17          7.2020    -2.7890    -2.4600 ca         1 3F1       0.025000
     18 C18          7.3550    -3.5140    -3.6250 ca         1 3F1      -0.199500
     19 C19          8.4890    -4.2900    -3.8150 ca         1 3F1       0.191100
     20 O20          8.6420    -5.0040    -4.9620 os         1 3F1      -0.299900
     21 C21          7.5970    -4.9040    -5.9310 c3         1 3F1       0.263700
     22 C22          7.9390    -5.7570    -7.1270 ca         1 3F1      -0.116300
     23 C23          7.5370    -7.0790    -7.1690 ca         1 3F1      -0.074000
     24 C24          7.8490    -7.8610    -8.2650 ca         1 3F1      -0.105000
     25 C25          8.6470    -5.2150    -8.1820 ca         1 3F1      -0.074000
     26 C26          8.9600    -5.9980    -9.2780 ca         1 3F1      -0.105000
     27 C27          8.5640    -7.3220    -9.3180 ca         1 3F1      -0.089000
     28 H1          -0.3610    -0.9820     0.2800 hc         1 3F1       0.010033
     29 H1A         -0.3610     0.7330     0.7110 hc         1 3F1       0.010033
     30 H1B         -0.3610     0.2490    -0.9910 hc         1 3F1       0.010033
     31 H3           1.6550     0.0000     2.1360 ha         1 3F1       0.109500
     32 H4           4.1210     0.0010     2.1380 ha         1 3F1       0.121500
     33 H6           8.4290     0.0050    -1.3750 h1         1 3F1       0.082033
     34 H6A          9.8370    -0.4390    -0.4010 h1         1 3F1       0.082033
     35 H6B          8.4800     0.4150     0.3450 h1         1 3F1       0.082033
     36 H7           1.6580    -0.0090    -2.1340 ha         1 3F1       0.109500
     37 H8           4.1230    -0.0080    -2.1340 ha         1 3F1       0.121500
     38 H14         10.0700    -3.6520    -0.8970 ha         1 3F1       0.117500
     39 H15         10.3510    -4.9470    -2.9750 ha         1 3F1       0.123500
     40 H17          6.3170    -2.1830    -2.3110 ha         1 3F1       0.117500
     41 H18          6.5900    -3.4750    -4.3910 ha         1 3F1       0.123500
     42 H21          7.4900    -3.8720    -6.2430 h1         1 3F1       0.006700
     43 H21A         6.6670    -5.2490    -5.4960 h1         1 3F1       0.006700
     44 H23          6.9770    -7.5020    -6.3440 ha         1 3F1       0.107000
     45 H24          7.5360    -8.8980    -8.2970 ha         1 3F1       0.104000
     46 H25          8.9580    -4.1780    -8.1510 ha         1 3F1       0.107000
     47 H26          9.5180    -5.5750   -10.1050 ha         1 3F1       0.104000
     48 H27          8.8090    -7.9350   -10.1770 ha         1 3F1       0.103000
@<TRIPOS>BOND
     1     1     2 1   
     2     1    28 1   
     3     1    29 1   
     4     1    30 1   
     5     2     3 ar  
     6     2     7 ar  
     7     3     4 ar  
     8     3    31 1   
     9     4     9 ar  
    10     4    32 1   
    11     5    10 2   
    12     6    12 1   
    13     6    33 1   
    14     6    34 1   
    15     6    35 1   
    16     7     8 ar  
    17     7    36 1   
    18     8     9 ar  
    19     8    37 1   
    20     9    10 1   
    21    10    11 1   
    22    10    16 2   
    23    11    12 2   
    24    12    13 1   
    25    13    14 ar  
    26    13    17 ar  
    27    14    15 ar  
    28    14    38 1   
    29    15    19 ar  
    30    15    39 1   
    31    17    18 ar  
    32    17    40 1   
    33    18    19 ar  
    34    18    41 1   
    35    19    20 1   
    36    20    21 1   
    37    21    22 1   
    38    21    42 1   
    39    21    43 1   
    40    22    23 ar  
    41    22    25 ar  
    42    23    24 ar  
    43    23    44 1   
    44    24    27 ar  
    45    24    45 1   
    46    25    26 ar  
    47    25    46 1   
    48    26    27 ar  
    49    26    47 1   
    50    27    48 1   
@<TRIPOS>SUBSTRUCTURE
     1 3F1         1 TEMP              0 ****  ****    0 ROOT
