@<TRIPOS>MOLECULE
molecule
   48    50     1     0     0
SMALL
bcc


@<TRIPOS>ATOM
      1 C1           0.0000     0.0000     0.0000 c3         1 3F1      -0.055800
      2 C2           1.5070     0.0000     0.0000 ca         1 3F1      -0.031300
      3 C3           2.1980     0.0000     1.1980 ca         1 3F1      -0.155000
      4 C4           3.5800    -0.0000     1.1990 ca         1 3F1      -0.021000
      5 O5           6.4360     0.5450    -1.2470 o          1 3F1      -0.671300
      6 C6           8.7600    -0.3230    -0.3970 c3         1 3F1      -0.153800
      7 C7           2.1990    -0.0060    -1.1960 ca         1 3F1      -0.155000
      8 C8           3.5810    -0.0050    -1.1960 ca         1 3F1      -0.021000
      9 C9           4.2720    -0.0010     0.0020 ca         1 3F1      -0.271500
     10 S10          6.0340    -0.0000     0.0030 sy         1 3F1       1.486700
     11 N11          6.5250    -1.5810     0.0030 ne         1 3F1      -0.697200
     12 S12          7.9810    -1.9120     0.0050 sx         1 3F1       0.263800
     13 C13          8.1790    -2.8360    -1.4820 ca         1 3F1      -0.133500
     14 C14          9.3080    -3.6140    -1.6660 ca         1 3F1      -0.010000
     15 C15          9.4650    -4.3400    -2.8310 ca         1 3F1      -0.208000
     16 O16          6.4350     0.5450     1.2530 o          1 3F1      -0.671300
     17 C17          7.2020    -2.7890    -2.4600 ca         1 3F1      -0.010000
     18 C18          7.3550    -3.5140    -3.6250 ca         1 3F1      -0.208000
     19 C19          8.4890    -4.2900    -3.8150 ca         1 3F1       0.182100
     20 O20          8.6420    -5.0040    -4.9620 os         1 3F1      -0.320900
     21 C21          7.5970    -4.9040    -5.9310 c3         1 3F1       0.185700
     22 C22          7.9390    -5.7570    -7.1270 ca         1 3F1      -0.098300
     23 C23          7.5370    -7.0790    -7.1690 ca         1 3F1      -0.102000
     24 C24          7.8490    -7.8610    -8.2650 ca         1 3F1      -0.132000
     25 C25          8.6470    -5.2150    -8.1820 ca         1 3F1      -0.102000
     26 C26          8.9600    -5.9980    -9.2780 ca         1 3F1      -0.132000
     27 C27          8.5640    -7.3220    -9.3180 ca         1 3F1      -0.116000
     28 H1          -0.3610     0.7330     0.7110 hc         1 3F1       0.047033
     29 H1A         -0.3610    -0.9820     0.2800 hc         1 3F1       0.047033
     30 H1B         -0.3610     0.2490    -0.9910 hc         1 3F1       0.047033
     31 H3           1.6550     0.0000     2.1360 ha         1 3F1       0.133500
     32 H4           4.1210     0.0010     2.1380 ha         1 3F1       0.149000
     33 H6           9.8370    -0.4380    -0.3980 h1         1 3F1       0.106367
     34 H6A          8.4770     0.4160     0.3430 h1         1 3F1       0.106367
     35 H6B          8.4320     0.0030    -1.3770 h1         1 3F1       0.106367
     36 H7           1.6580    -0.0090    -2.1340 ha         1 3F1       0.133500
     37 H8           4.1230    -0.0080    -2.1340 ha         1 3F1       0.149000
     38 H14         10.0700    -3.6520    -0.8970 ha         1 3F1       0.143500
     39 H15         10.3510    -4.9470    -2.9750 ha         1 3F1       0.145000
     40 H17          6.3170    -2.1830    -2.3110 ha         1 3F1       0.143500
     41 H18          6.5900    -3.4750    -4.3910 ha         1 3F1       0.145000
     42 H21          7.4900    -3.8720    -6.2430 h1         1 3F1       0.044700
     43 H21A         6.6670    -5.2490    -5.4960 h1         1 3F1       0.044700
     44 H23          6.9770    -7.5020    -6.3440 ha         1 3F1       0.134000
     45 H24          7.5360    -8.8980    -8.2970 ha         1 3F1       0.133000
     46 H25          8.9580    -4.1780    -8.1510 ha         1 3F1       0.134000
     47 H26          9.5180    -5.5750   -10.1050 ha         1 3F1       0.133000
     48 H27          8.8090    -7.9350   -10.1770 ha         1 3F1       0.132000
@<TRIPOS>BOND
     1     1     2 1
     2     2     3 ar
     3     2     7 ar
     4     3     4 ar
     5     4     9 ar
     6     5    10 2
     7     6    12 1
     8     7     8 ar
     9     8     9 ar
    10     9    10 1
    11    10    11 1
    12    10    16 2
    13    11    12 2
    14    12    13 1
    15    13    14 ar
    16    13    17 ar
    17    14    15 ar
    18    15    19 ar
    19    17    18 ar
    20    18    19 ar
    21    19    20 1
    22    20    21 1
    23    21    22 1
    24    22    23 ar
    25    22    25 ar
    26    23    24 ar
    27    24    27 ar
    28    25    26 ar
    29    26    27 ar
    30     1    28 1
    31     1    29 1
    32     1    30 1
    33     3    31 1
    34     4    32 1
    35     6    33 1
    36     6    34 1
    37     6    35 1
    38     7    36 1
    39     8    37 1
    40    14    38 1
    41    15    39 1
    42    17    40 1
    43    18    41 1
    44    21    42 1
    45    21    43 1
    46    23    44 1
    47    24    45 1
    48    25    46 1
    49    26    47 1
    50    27    48 1
@<TRIPOS>SUBSTRUCTURE
     1 3F1         1 TEMP              0 ****  ****    0 ROOT
