@<TRIPOS>MOLECULE
3F2
   68    73     1     0     0
SMALL
bcc


@<TRIPOS>ATOM
      1 NAY          0.0000     0.0000     0.0000 nu         1 3F2      -0.544700
      2 CAU          1.4730     0.0000     0.0000 c3         1 3F2       0.118300
      3 CAS          1.8260     0.0000     1.5000 c3         1 3F2       0.151300
      4 NAW          0.5210    -0.0000     2.1750 n2         1 3F2      -0.640400
      5 CBE         -0.4310    -0.0010     1.3010 ce         1 3F2       0.523800
      6 CBK         -1.8640    -0.0010     1.6740 ca         1 3F2      -0.103900
      7 CAQ         -2.2370     0.0040     3.0170 ca         1 3F2      -0.057000
      8 CAG         -2.8450    -0.0020     0.6820 ca         1 3F2      -0.114000
      9 CAC         -4.1800    -0.0010     1.0310 ca         1 3F2      -0.084500
     10 CAE         -4.5510    -0.0020     2.3620 ca         1 3F2      -0.129000
     11 CBG         -3.5810     0.0040     3.3580 ca         1 3F2      -0.091900
     12 NBA         -3.9610     0.0100     4.7050 ns         1 3F2      -0.037600
     13 CBC         -3.2030     0.6520     5.6160 c          1 3F2       0.582200
     14 OAA         -2.2430     1.3050     5.2560 o          1 3F2      -0.621600
     15 CBI         -3.5420     0.5640     7.0500 ca         1 3F2      -0.159600
     16 CAJ         -2.7570     1.2300     7.9950 ca         1 3F2      -0.054000
     17 CAN         -3.0730     1.1480     9.3340 ca         1 3F2      -0.108000
     18 CAI         -4.6490    -0.1810     7.4640 ca         1 3F2      -0.054000
     19 CAM         -4.9630    -0.2620     8.8020 ca         1 3F2      -0.108000
     20 CBM         -4.1760     0.3990     9.7450 cp         1 3F2      -0.013000
     21 CBN         -4.5140     0.3110    11.1860 cp         1 3F2      -0.013000
     22 CAP         -3.7270     0.9720    12.1290 ca         1 3F2      -0.108000
     23 CAL         -4.0410     0.8910    13.4670 ca         1 3F2      -0.054000
     24 CAO         -5.6230    -0.4290    11.5970 ca         1 3F2      -0.108000
     25 CAK         -5.9400    -0.5110    12.9340 ca         1 3F2      -0.054000
     26 CBJ         -5.1490     0.1460    13.8800 ca         1 3F2      -0.159600
     27 CBD         -5.4870     0.0590    15.3150 c          1 3F2       0.582200
     28 OAB         -6.4540    -0.5850    15.6740 o          1 3F2      -0.621600
     29 NBB         -4.7240     0.6920    16.2270 ns         1 3F2      -0.037600
     30 CBH         -4.9780     0.5230    17.5920 ca         1 3F2      -0.091900
     31 CAR         -5.4580    -0.6900    18.0630 ca         1 3F2      -0.057000
     32 CAF         -4.7460     1.5690    18.4780 ca         1 3F2      -0.129000
     33 CAD         -4.9960     1.4070    19.8270 ca         1 3F2      -0.084500
     34 CAH         -5.4800     0.2030    20.3040 ca         1 3F2      -0.114000
     35 CBL         -5.7110    -0.8530    19.4240 ca         1 3F2      -0.103900
     36 CBF         -6.2290    -2.1440    19.9330 ce         1 3F2       0.523800
     37 NAX         -6.5020    -2.3660    21.2580 nu         1 3F2      -0.544700
     38 CAT         -6.9980    -3.7450    21.4040 c3         1 3F2       0.118300
     39 CAV         -6.9680    -4.2850    19.9600 c3         1 3F2       0.151300
     40 NAZ         -6.4680    -3.1550    19.1660 n2         1 3F2      -0.640400
     41 H1          -0.5860    -0.0000    -0.8110 hn         1 3F2       0.314800
     42 H3           1.7900    -0.9550    -0.4010 h1         1 3F2       0.026700
     43 H4           1.7900     0.9550    -0.4010 h1         1 3F2       0.026700
     44 H5           2.2920    -0.9540     1.7140 h1         1 3F2       0.034700
     45 H6           2.2910     0.9540     1.7150 h1         1 3F2       0.034700
     46 H10         -1.4800     0.0090     3.7910 ha         1 3F2       0.166000
     47 H11         -2.5580    -0.0010    -0.3620 ha         1 3F2       0.099000
     48 H12         -4.9390    -0.0040     0.2590 ha         1 3F2       0.103000
     49 H13         -5.6010    -0.0020     2.6300 ha         1 3F2       0.103500
     50 H14         -4.7970    -0.4600     4.9910 hn         1 3F2       0.172500
     51 H15         -1.9010     1.8110     7.6760 ha         1 3F2       0.115500
     52 H16         -2.4640     1.6630    10.0670 ha         1 3F2       0.116000
     53 H17         -5.2600    -0.6950     6.7320 ha         1 3F2       0.115500
     54 H18         -5.8200    -0.8420     9.1230 ha         1 3F2       0.116000
     55 H19         -2.8680     1.5490    11.8080 ha         1 3F2       0.116000
     56 H20         -3.4280     1.4030    14.1990 ha         1 3F2       0.115500
     57 H21         -6.2360    -0.9390    10.8640 ha         1 3F2       0.116000
     58 H22         -6.8000    -1.0880    13.2530 ha         1 3F2       0.115500
     59 H23         -4.0450     1.3640    15.9270 hn         1 3F2       0.172500
     60 H24         -5.6370    -1.5070    17.3750 ha         1 3F2       0.166000
     61 H25         -4.3670     2.5150    18.1100 ha         1 3F2       0.103500
     62 H26         -4.8150     2.2260    20.5130 ha         1 3F2       0.103000
     63 H27         -5.6750     0.0790    21.3620 ha         1 3F2       0.099000
     64 H28         -6.3850    -1.7040    21.9990 hn         1 3F2       0.314800
     65 H29         -8.0380    -3.6800    21.6970 h1         1 3F2       0.026700
     66 H30         -6.2070    -5.0550    19.9270 h1         1 3F2       0.034700
     67 H2          -6.2490    -4.2940    21.9630 h1         1 3F2       0.026700
     68 H7          -7.9980    -4.4480    19.6640 h1         1 3F2       0.034700
@<TRIPOS>BOND
     1     1     2 1   
     2     1     5 1   
     3     1    41 1   
     4     2     3 1   
     5     2    42 1   
     6     2    43 1   
     7     3     4 1   
     8     3    44 1   
     9     3    45 1   
    10     4     5 2   
    11     5     6 1   
    12     6     7 ar  
    13     6     8 ar  
    14     7    11 ar  
    15     7    46 1   
    16     8     9 ar  
    17     8    47 1   
    18     9    10 ar  
    19     9    48 1   
    20    10    11 ar  
    21    10    49 1   
    22    11    12 1   
    23    12    13 1   
    24    12    50 1   
    25    13    14 2   
    26    13    15 1   
    27    15    16 ar  
    28    15    18 ar  
    29    16    17 ar  
    30    16    51 1   
    31    17    20 ar  
    32    17    52 1   
    33    18    19 ar  
    34    18    53 1   
    35    19    20 ar  
    36    19    54 1   
    37    20    21 1   
    38    21    22 ar  
    39    21    24 ar  
    40    22    23 ar  
    41    22    55 1   
    42    23    26 ar  
    43    23    56 1   
    44    24    25 ar  
    45    24    57 1   
    46    25    26 ar  
    47    25    58 1   
    48    26    27 1   
    49    27    28 2   
    50    27    29 1   
    51    29    30 1   
    52    29    59 1   
    53    30    31 ar  
    54    30    32 ar  
    55    31    35 ar  
    56    31    60 1   
    57    32    33 ar  
    58    32    61 1   
    59    33    34 ar  
    60    33    62 1   
    61    34    35 ar  
    62    34    63 1   
    63    35    36 1   
    64    36    37 1   
    65    36    40 2   
    66    37    38 1   
    67    37    64 1   
    68    38    39 1   
    69    38    65 1   
    70    38    67 1   
    71    39    40 1   
    72    39    66 1   
    73    39    68 1   
@<TRIPOS>SUBSTRUCTURE
     1 3F2         1 TEMP              0 ****  ****    0 ROOT
