@<TRIPOS>MOLECULE
molecule
   68    73     1     0     0
SMALL
bcc


@<TRIPOS>ATOM
      1 NAY          0.0000     0.0000     0.0000 nu         1 3F2      -0.933700
      2 CAU          1.4730     0.0000     0.0000 c3         1 3F2       0.175800
      3 CAS          1.8260     0.0000     1.5000 c3         1 3F2       0.091800
      4 NAW          0.5210    -0.0000     2.1750 n2         1 3F2      -0.667400
      5 CBE         -0.4310    -0.0010     1.3010 ce         1 3F2       0.655800
      6 CBK         -1.8640    -0.0010     1.6740 ca         1 3F2      -0.101900
      7 CAQ         -2.2370     0.0040     3.0170 ca         1 3F2      -0.081000
      8 CAG         -2.8450    -0.0020     0.6820 ca         1 3F2      -0.133500
      9 CAC         -4.1800    -0.0010     1.0310 ca         1 3F2      -0.115000
     10 CAE         -4.5510    -0.0020     2.3620 ca         1 3F2      -0.154000
     11 CBG         -3.5810     0.0040     3.3580 ca         1 3F2       0.052600
     12 NBA         -3.9610     0.0100     4.7050 ns         1 3F2      -0.475100
     13 CBC         -3.2030     0.6520     5.6160 c          1 3F2       0.672200
     14 OAA         -2.2430     1.3050     5.2560 o          1 3F2      -0.579600
     15 CBI         -3.5420     0.5640     7.0500 ca         1 3F2      -0.145600
     16 CAJ         -2.7570     1.2300     7.9950 ca         1 3F2      -0.082500
     17 CAN         -3.0730     1.1480     9.3340 ca         1 3F2      -0.127250
     18 CAI         -4.6490    -0.1810     7.4640 ca         1 3F2      -0.082500
     19 CAM         -4.9630    -0.2620     8.8020 ca         1 3F2      -0.127250
     20 CBM         -4.1760     0.3990     9.7450 cp         1 3F2      -0.017000
     21 CBN         -4.5140     0.3110    11.1860 cp         1 3F2      -0.017000
     22 CAP         -3.7270     0.9720    12.1290 ca         1 3F2      -0.127250
     23 CAL         -4.0410     0.8910    13.4670 ca         1 3F2      -0.082500
     24 CAO         -5.6230    -0.4290    11.5970 ca         1 3F2      -0.127250
     25 CAK         -5.9400    -0.5110    12.9340 ca         1 3F2      -0.082500
     26 CBJ         -5.1490     0.1460    13.8800 ca         1 3F2      -0.145600
     27 CBD         -5.4870     0.0590    15.3150 c          1 3F2       0.672200
     28 OAB         -6.4540    -0.5850    15.6740 o          1 3F2      -0.579600
     29 NBB         -4.7240     0.6920    16.2270 ns         1 3F2      -0.475100
     30 CBH         -4.9780     0.5230    17.5920 ca         1 3F2       0.052600
     31 CAR         -5.4580    -0.6900    18.0630 ca         1 3F2      -0.081000
     32 CAF         -4.7460     1.5690    18.4780 ca         1 3F2      -0.154000
     33 CAD         -4.9960     1.4070    19.8270 ca         1 3F2      -0.115000
     34 CAH         -5.4800     0.2030    20.3040 ca         1 3F2      -0.133500
     35 CBL         -5.7110    -0.8530    19.4240 ca         1 3F2      -0.101900
     36 CBF         -6.2290    -2.1440    19.9330 ce         1 3F2       0.655800
     37 NAX         -6.5020    -2.3660    21.2580 nu         1 3F2      -0.933700
     38 CAT         -6.9980    -3.7450    21.4040 c3         1 3F2       0.175800
     39 CAV         -6.9680    -4.2850    19.9600 c3         1 3F2       0.091800
     40 NAZ         -6.4680    -3.1550    19.1660 n2         1 3F2      -0.667400
     41 H1          -0.5860    -0.0000    -0.8110 hn         1 3F2       0.449800
     42 H3           1.7900    -0.9550    -0.4010 h1         1 3F2       0.055200
     43 H4           1.7900     0.9550    -0.4010 h1         1 3F2       0.055200
     44 H5           2.2920    -0.9540     1.7140 h1         1 3F2       0.072450
     45 H6           2.2910     0.9540     1.7150 h1         1 3F2       0.072450
     46 H10         -1.4800     0.0090     3.7910 ha         1 3F2       0.188500
     47 H11         -2.5580    -0.0010    -0.3620 ha         1 3F2       0.125000
     48 H12         -4.9390    -0.0040     0.2590 ha         1 3F2       0.133000
     49 H13         -5.6010    -0.0020     2.6300 ha         1 3F2       0.129500
     50 H14         -4.7970    -0.4600     4.9910 hn         1 3F2       0.325000
     51 H15         -1.9010     1.8110     7.6760 ha         1 3F2       0.144250
     52 H16         -2.4640     1.6630    10.0670 ha         1 3F2       0.139750
     53 H17         -5.2600    -0.6950     6.7320 ha         1 3F2       0.144250
     54 H18         -5.8200    -0.8420     9.1230 ha         1 3F2       0.139750
     55 H19         -2.8680     1.5490    11.8080 ha         1 3F2       0.139750
     56 H20         -3.4280     1.4030    14.1990 ha         1 3F2       0.144250
     57 H21         -6.2360    -0.9390    10.8640 ha         1 3F2       0.139750
     58 H22         -6.8000    -1.0880    13.2530 ha         1 3F2       0.144250
     59 H23         -4.0450     1.3640    15.9270 hn         1 3F2       0.325000
     60 H24         -5.6370    -1.5070    17.3750 ha         1 3F2       0.188500
     61 H25         -4.3670     2.5150    18.1100 ha         1 3F2       0.129500
     62 H26         -4.8150     2.2260    20.5130 ha         1 3F2       0.133000
     63 H27         -5.6750     0.0790    21.3620 ha         1 3F2       0.125000
     64 H28         -6.3850    -1.7040    21.9990 hn         1 3F2       0.449800
     65 H29         -8.0380    -3.6800    21.6970 h1         1 3F2       0.055200
     66 H30         -6.2070    -5.0550    19.9270 h1         1 3F2       0.072450
     67 H2          -6.2490    -4.2940    21.9630 h1         1 3F2       0.055200
     68 H7          -7.9980    -4.4480    19.6640 h1         1 3F2       0.072450
@<TRIPOS>BOND
     1    39    40 1
     2    39    38 1
     3    40    36 2
     4    38    37 1
     5    36    37 1
     6    36    35 1
     7    34    35 ar
     8    34    33 ar
     9    35    31 ar
    10    33    32 ar
    11    31    30 ar
    12    32    30 ar
    13    30    29 1
    14    29    27 1
    15    28    27 2
    16    27    26 1
    17    26    25 ar
    18    26    23 ar
    19    25    24 ar
    20    23    22 ar
    21    24    21 ar
    22    22    21 ar
    23    21    20 1
    24    20    19 ar
    25    20    17 ar
    26    19    18 ar
    27    17    16 ar
    28    18    15 ar
    29    16    15 ar
    30    15    13 1
    31    13    14 2
    32    13    12 1
    33    12    11 1
    34    11     7 ar
    35    11    10 ar
    36     7     6 ar
    37    10     9 ar
    38     1     2 1
    39     1     5 1
    40     9     8 ar
    41     6     5 1
    42     6     8 ar
    43     2     3 1
    44     5     4 2
    45     4     3 1
    46     1    41 1
    47     2    42 1
    48     2    43 1
    49     3    44 1
    50     3    45 1
    51     7    46 1
    52     8    47 1
    53     9    48 1
    54    10    49 1
    55    12    50 1
    56    16    51 1
    57    17    52 1
    58    18    53 1
    59    19    54 1
    60    22    55 1
    61    23    56 1
    62    24    57 1
    63    25    58 1
    64    29    59 1
    65    31    60 1
    66    32    61 1
    67    33    62 1
    68    34    63 1
    69    37    64 1
    70    38    65 1
    71    39    66 1
    72    38    67 1
    73    39    68 1
@<TRIPOS>SUBSTRUCTURE
     1 3F2         1 TEMP              0 ****  ****    0 ROOT
