@<TRIPOS>MOLECULE
3F3
   53    57     1     0     0
SMALL
bcc


@<TRIPOS>ATOM
      1 C           0.9660    0.3640   -0.9160 c3        1 3F3      0.113700
      2 O           2.1630    0.5480   -0.1710 os        1 3F3     -0.323900
      3 C1          2.1310    0.1300    1.1460 ca        1 3F3      0.124100
      4 C22         0.9930   -0.3650    1.7930 ca        1 3F3     -0.196000
      5 C21         1.0880   -0.7450    3.1320 ca        1 3F3     -0.097000
      6 C20         2.2930   -0.6330    3.8190 ca        1 3F3     -0.151000
      7 C3          3.4290   -0.1360    3.1670 ca        1 3F3     -0.064300
      8 C2          3.3570    0.2460    1.8280 ca        1 3F3     -0.134000
      9 C4          4.7120    0.0110    3.9140 c3        1 3F3     -0.053400
     10 C5          5.7030   -1.0140    3.5180 cc        1 3F3      0.459700
     11 O1          5.9600   -2.0540    4.4260 os        1 3F3     -0.391800
     12 C6          6.9340   -2.8360    3.7690 cc        1 3F3      0.553200
     13 N1          7.2090   -2.2720    2.5710 nd        1 3F3     -0.330000
     14 N           6.4710   -1.1850    2.4230 nd        1 3F3     -0.346000
     15 C7          7.4330   -4.0040    4.4240 cc        1 3F3     -0.199200
     16 S           7.6430   -4.1010    6.1060 ss        1 3F3      0.088500
     17 C19         8.2670   -5.6610    6.0520 ca        1 3F3     -0.068100
     18 C18         8.6990   -6.4650    7.1150 ca        1 3F3     -0.103000
     19 C17         9.1560   -7.7450    6.8530 ca        1 3F3     -0.106000
     20 C16         9.1850   -8.2470    5.5370 ca        1 3F3     -0.138000
     21 C15         8.7650   -7.4660    4.4740 ca        1 3F3     -0.077000
     22 C14         8.3120   -6.1610    4.7220 ca        1 3F3     -0.115800
     23 C8          7.8210   -5.1720    3.7860 cd        1 3F3      0.169900
     24 O2          7.6270   -5.4010    2.4520 os        1 3F3     -0.307900
     25 C9          8.8330   -5.6820    1.6970 c3        1 3F3      0.145100
     26 C13         8.4480   -6.7560    0.6850 c3        1 3F3     -0.092900
     27 C12         9.6010   -6.9960   -0.2870 c3        1 3F3      0.166800
     28 N2         10.0710   -5.7840   -0.9260 n3        1 3F3     -0.821200
     29 C11        10.3970   -4.7160   -0.0010 c3        1 3F3      0.166800
     30 C10         9.2770   -4.4090    0.9900 c3        1 3F3     -0.092900
     31 HC1         0.1380    0.9820   -0.4900 h1        1 3F3      0.044367
     32 HC2         1.2400    0.7240   -1.9400 h1        1 3F3      0.044367
     33 HC3         0.6760   -0.7140   -0.9420 h1        1 3F3      0.044367
     34 H22         0.0350   -0.4600    1.2640 ha        1 3F3      0.138000
     35 H2          4.2420    0.6250    1.2950 ha        1 3F3      0.163000
     36 H21         0.1990   -1.1380    3.6470 ha        1 3F3      0.134000
     37 H20         2.3540   -0.9390    4.8740 ha        1 3F3      0.135000
     38 H41C        4.5320   -0.0740    5.0200 hc        1 3F3      0.082200
     39 H42C        5.1540    1.0260    3.7080 hc        1 3F3      0.082200
     40 H18         8.6710   -6.0790    8.1440 ha        1 3F3      0.141000
     41 H17         9.4990   -8.3860    7.6790 ha        1 3F3      0.137000
     42 H16         9.5420   -9.2720    5.3600 ha        1 3F3      0.137000
     43 H15         8.7700   -7.8530    3.4440 ha        1 3F3      0.143000
     44 H9          9.6420   -6.0570    2.3820 h1        1 3F3      0.049700
     45 H131        8.2070   -7.7130    1.2140 hc        1 3F3      0.068200
     46 H132        7.5310   -6.4270    0.1320 hc        1 3F3      0.068200
     47 H101        9.6440   -3.6620    1.7380 hc        1 3F3      0.068200
     48 H102        8.3980   -3.9550    0.4620 hc        1 3F3      0.068200
     49 H121       10.4270   -7.5280    0.2740 h1        1 3F3      0.028200
     50 H122        9.2460   -7.6880   -1.1020 h1        1 3F3      0.028200
     51 HA         10.8620   -5.9880   -1.5080 hn        1 3F3      0.364800
     52 H111       11.3360   -4.9430    0.5880 h1        1 3F3      0.028200
     53 H112       10.5970   -3.7930   -0.6150 h1        1 3F3      0.028200
@<TRIPOS>BOND
     1    1    2 1   
     2    1   31 1   
     3    1   32 1   
     4    1   33 1   
     5    2    3 1   
     6    3    4 ar  
     7    3    8 ar  
     8    4    5 ar  
     9    4   34 1   
    10    5    6 ar  
    11    5   36 1   
    12    6    7 ar  
    13    6   37 1   
    14    7    8 ar  
    15    7    9 1   
    16    8   35 1   
    17    9   10 1   
    18    9   38 1   
    19    9   39 1   
    20   10   11 1   
    21   10   14 2   
    22   11   12 1   
    23   12   13 2   
    24   12   15 1   
    25   13   14 1   
    26   15   16 1   
    27   15   23 2   
    28   16   17 1   
    29   17   18 ar  
    30   17   22 ar  
    31   18   19 ar  
    32   18   40 1   
    33   19   20 ar  
    34   19   41 1   
    35   20   21 ar  
    36   20   42 1   
    37   21   22 ar  
    38   21   43 1   
    39   22   23 1   
    40   23   24 1   
    41   24   25 1   
    42   25   26 1   
    43   25   30 1   
    44   25   44 1   
    45   26   27 1   
    46   26   45 1   
    47   26   46 1   
    48   27   28 1   
    49   27   49 1   
    50   27   50 1   
    51   28   29 1   
    52   28   51 1   
    53   29   30 1   
    54   29   52 1   
    55   29   53 1   
    56   30   47 1   
    57   30   48 1   
@<TRIPOS>SUBSTRUCTURE
     1 3F3         1 TEMP              0 ****  ****    0 ROOT
