@<TRIPOS>MOLECULE
3F4
   28    30     1     0     0
SMALL
bcc


@<TRIPOS>ATOM
      1 O1           0.0000     0.0000     0.0000 o          1 3F4      -0.666500
      2 C13          1.2180     0.0000     0.0000 c          1 3F4       0.620100
      3 N1           1.9200     0.0000     1.1560 ns         1 3F4      -0.017400
      4 C6           3.2880     0.0010     1.1350 cc         1 3F4       0.361500
      5 C3           4.0120     0.0010     2.4230 ca         1 3F4      -0.177900
      6 C4           5.4090     0.0020     2.4410 ca         1 3F4      -0.048000
      7 C5           6.0800     0.0020     3.6430 ca         1 3F4      -0.143000
      8 C            5.3700     0.0020     4.8380 ca         1 3F4       0.147100
      9 O            6.0360     0.0020     6.0210 oh         1 3F4      -0.500100
     10 C1           3.9810     0.0000     4.8240 ca         1 3F4      -0.143000
     11 C2           3.3010     0.0050     3.6250 ca         1 3F4      -0.048000
     12 N            3.9850     0.0020     0.0270 nd         1 3F4      -0.539100
     13 C7           3.3920     0.0020    -1.1830 ca         1 3F4       0.156400
     14 C8           1.9790    -0.0060    -1.2570 ca         1 3F4      -0.217600
     15 C12          4.1390     0.0020    -2.3630 ca         1 3F4      -0.100000
     16 C11          3.4940     0.0020    -3.5790 ca         1 3F4      -0.062000
     17 C10          2.1070     0.0010    -3.6490 ca         1 3F4      -0.130000
     18 C9           1.3470    -0.0120    -2.4990 ca         1 3F4      -0.014000
     19 H1           1.4360    -0.0010     2.0320 hn         1 3F4       0.189500
     20 H4           5.9630     0.0020     1.5100 ha         1 3F4       0.117500
     21 H2           2.2180     0.0040     3.6160 ha         1 3F4       0.117500
     22 H5           7.1630     0.0030     3.6570 ha         1 3F4       0.118500
     23 H            6.1900    -0.8870     6.2950 ho         1 3F4       0.407000
     24 HA           3.4310     0.0020     5.7570 ha         1 3F4       0.118500
     25 H12          5.2220     0.0020    -2.3220 ha         1 3F4       0.119000
     26 H9           0.2660    -0.0120    -2.5610 ha         1 3F4       0.124000
     27 H11          4.0750     0.0120    -4.4920 ha         1 3F4       0.102000
     28 H10          1.6180     0.0010    -4.6160 ha         1 3F4       0.108000
@<TRIPOS>BOND
     1     1     2 2   
     2     2     3 1   
     3     2    14 1   
     4     3     4 1   
     5     3    19 1   
     6     4     5 1   
     7     4    12 2   
     8     5     6 ar  
     9     5    11 ar  
    10     6     7 ar  
    11     6    20 1   
    12     7     8 ar  
    13     7    22 1   
    14     8     9 1   
    15     8    10 ar  
    16     9    23 1   
    17    10    11 ar  
    18    10    24 1   
    19    11    21 1   
    20    12    13 1   
    21    13    14 ar  
    22    13    15 ar  
    23    14    18 ar  
    24    15    16 ar  
    25    15    25 1   
    26    16    17 ar  
    27    16    27 1   
    28    17    18 ar  
    29    17    28 1   
    30    18    26 1   
@<TRIPOS>SUBSTRUCTURE
     1 3F4         1 TEMP              0 ****  ****    0 ROOT
