@<TRIPOS>MOLECULE
molecule
   45    47     1     0     0
SMALL
bcc


@<TRIPOS>ATOM
      1 N1           0.0000     0.0000     0.0000 nb         1 3F5      -0.820000
      2 C2           1.3210     0.0000     0.0000 ca         1 3F5       0.737900
      3 N3           2.0260     0.0000     1.1120 nb         1 3F5      -0.792000
      4 C4          -0.6880     0.0000     1.1370 ca         1 3F5       0.778200
      5 N5           1.8570     0.0010     3.6020 na         1 3F5      -0.280000
      6 C6           0.7470     0.0030     4.4020 cc         1 3F5       0.659700
      7 N7          -0.3330     0.0030     3.6590 nd         1 3F5      -0.642100
      8 C8           0.0210     0.0020     2.3490 ca         1 3F5      -0.179200
      9 C9           1.4250     0.0010     2.2960 ca         1 3F5       0.475800
     10 N10         -2.0740     0.0020     1.1280 nv         1 3F5      -0.984500
     11 C11          3.2500     0.0010     4.0540 c3         1 3F5       0.246800
     12 O12          3.4250    -0.9310     5.1430 os         1 3F5      -0.416600
     13 C13          4.6310    -0.5080     5.8170 c3         1 3F5       0.126100
     14 C14          4.5520     1.0340     5.8370 c3         1 3F5       0.101100
     15 C15          3.6230     1.3770     4.6500 c3         1 3F5       0.093100
     16 C16          4.6650    -1.0580     7.2440 c3         1 3F5       0.142400
     17 O17          4.7810    -2.4820     7.2040 os         1 3F5      -0.374600
     18 O18          4.3160     2.1690     3.6840 oh         1 3F5      -0.553800
     19 O19          5.8470     1.6050     5.6380 oh         1 3F5      -0.558800
     20 N20          0.7610     0.0030     5.7810 nu         1 3F5      -0.884200
     21 C21         -0.5000     0.0040     6.5280 c3         1 3F5       0.247100
     22 C22          4.8210    -3.0970     8.4940 c3         1 3F5       0.074400
     23 C23          4.9430    -4.5910     8.3320 c          1 3F5       0.463100
     24 O24          4.9920    -5.0790     7.2230 o          1 3F5      -0.341100
     25 N25          5.0000    -5.3840     9.4210 nz         1 3F5      -0.684400
     26 H2           1.8430    -0.0000    -0.9490 h5         1 3F5       0.067100
     27 HN10        -2.5680    -0.0510     0.2590 hn         1 3F5       0.451800
     28 HN1A        -2.5800     0.0580     1.9890 hn         1 3F5       0.451800
     29 H11          3.9170    -0.2480     3.2380 h2         1 3F5       0.126700
     30 H13          5.5030    -0.8310     5.2620 h1         1 3F5       0.100700
     31 H14          4.1170     1.3780     6.7670 h1         1 3F5       0.042700
     32 H15          2.7350     1.8890     5.0020 h1         1 3F5       0.065700
     33 H16          3.7510    -0.7850     7.7580 h1         1 3F5       0.043700
     34 H16A         5.5140    -0.6410     7.7720 h1         1 3F5       0.043700
     35 HO18         3.8590     2.9850     3.5590 ho         1 3F5       0.418000
     36 HO19         6.0490     2.1840     6.3550 ho         1 3F5       0.409000
     37 HN20         1.6330    -0.0230     6.2730 hn         1 3F5       0.438800
     38 H21         -1.0580    -0.8950     6.2950 h1         1 3F5       0.042033
     39 H21A        -0.2910     0.0350     7.5900 h1         1 3F5       0.042033
     40 H21B        -1.0830     0.8730     6.2490 h1         1 3F5       0.042033
     41 H22          5.6740    -2.7230     9.0470 h1         1 3F5       0.070200
     42 H22A         3.9110    -2.8660     9.0330 h1         1 3F5       0.070200
     43 HN25         4.9790    -6.3430     9.1360 hn         1 3F5       0.479800
     44 HN2A         4.2150    -5.1950    10.0120 hn         1 3F5       0.479800
     45 H253         5.8470    -5.2030     9.9220 hn         1 3F5       0.479800
@<TRIPOS>BOND
     1     1     2 ar  
     2     1     4 ar  
     3     2     3 ar  
     4     3     9 ar  
     5     4     8 ar  
     6     4    10 1   
     7     5     6 1   
     8     5     9 1   
     9     5    11 1   
    10     6     7 2   
    11     6    20 1   
    12     7     8 1   
    13     8     9 ar  
    14    11    12 1   
    15    11    15 1   
    16    12    13 1   
    17    13    14 1   
    18    13    16 1   
    19    14    15 1   
    20    14    19 1   
    21    15    18 1   
    22    16    17 1   
    23    17    22 1   
    24    20    21 1   
    25    22    23 1   
    26    23    24 2   
    27    23    25 1   
    28     2    26 1   
    29    10    27 1   
    30    10    28 1   
    31    11    29 1   
    32    13    30 1   
    33    14    31 1   
    34    15    32 1   
    35    16    33 1   
    36    16    34 1   
    37    18    35 1   
    38    19    36 1   
    39    20    37 1   
    40    21    38 1   
    41    21    39 1   
    42    21    40 1   
    43    22    41 1   
    44    22    42 1   
    45    25    43 1   
    46    25    44 1   
    47    45    25 1   
@<TRIPOS>SUBSTRUCTURE
     1 3F5         1 TEMP              0 ****  ****    0 ROOT
