@<TRIPOS>MOLECULE
molecule
   64    70     1     0     0
SMALL
bcc


@<TRIPOS>ATOM
      1 NAU          0.0000     0.0000     0.0000 nu         1 3F6      -0.932700
      2 CAQ          1.4720     0.0000     0.0000 c3         1 3F6       0.224800
      3 CAM          1.9310     0.0000     1.4650 c3         1 3F6      -0.149900
      4 CAO          1.3710     1.2500     2.1480 c3         1 3F6       0.134800
      5 NAS         -0.0570     1.3820     1.8860 n2         1 3F6      -0.720900
      6 CAY         -0.6610     0.8120     0.8960 ce         1 3F6       0.699300
      7 CBA         -2.1100     1.0430     0.7150 ca         1 3F6      -0.115900
      8 CAI         -2.7980     1.8640     1.6040 ca         1 3F6      -0.085000
      9 CAE         -2.7840     0.4390    -0.3540 ca         1 3F6      -0.143500
     10 CAG         -4.1190     0.6440    -0.5330 ca         1 3F6      -0.086500
     11 CBG         -4.8280     1.4640     0.3560 ca         1 3F6      -0.091300
     12 CAK         -6.1840     1.8630     0.4370 cc         1 3F6      -0.178200
     13 CBI         -4.1570     2.0800     1.4310 ca         1 3F6      -0.048200
     14 NAW         -5.0890     2.8210     2.1270 na         1 3F6      -0.169400
     15 CBE         -6.3150     2.6750     1.5160 cd         1 3F6      -0.001800
     16 CBC         -7.5720     3.3120     1.9600 ca         1 3F6      -0.027800
     17 CAB         -8.7540     3.0940     1.2480 ca         1 3F6      -0.112500
     18 CAD         -9.9210     3.6850     1.6610 ca         1 3F6      -0.112500
     19 CAA         -7.5790     4.1270     3.0940 ca         1 3F6      -0.112500
     20 CAC         -8.7460     4.7180     3.5070 ca         1 3F6      -0.112500
     21 CBD         -9.9270     4.5040     2.7930 ca         1 3F6      -0.027800
     22 CBF        -11.1840     5.1410     3.2360 cc         1 3F6      -0.001800
     23 CAL        -12.3910     5.0060     2.6290 cd         1 3F6      -0.178200
     24 NAX        -11.3170     5.9610     4.3340 na         1 3F6      -0.169400
     25 CBJ        -12.6330     6.3640     4.4300 ca         1 3F6      -0.048200
     26 CAJ        -13.3120     7.1770     5.3250 ca         1 3F6      -0.085000
     27 CBH        -13.3320     5.7710     3.3600 ca         1 3F6      -0.091300
     28 CAH        -14.7060     6.0050     3.2060 ca         1 3F6      -0.086500
     29 CAF        -15.3620     6.8080     4.0890 ca         1 3F6      -0.143500
     30 CBB        -14.6750     7.4020     5.1550 ca         1 3F6      -0.115900
     31 CAZ        -15.4020     8.2680     6.1080 ce         1 3F6       0.699300
     32 NAT        -14.7500     8.8080     7.0840 n2         1 3F6      -0.720900
     33 CAP        -15.3640     9.6630     8.0950 c3         1 3F6       0.134800
     34 CAN        -16.6850    10.2380     7.5820 c3         1 3F6      -0.149900
     35 CAR        -17.5290     9.0890     7.0110 c3         1 3F6       0.224800
     36 NAV        -16.7520     8.4770     5.9200 nu         1 3F6      -0.932700
     37 H1          -0.5100    -0.5780    -0.6380 hn         1 3F6       0.436300
     38 H2           1.8390    -0.8880    -0.4990 h1         1 3F6       0.049450
     39 H3           1.8390     0.8880    -0.5000 h1         1 3F6       0.049450
     40 H4           1.4430    -0.8460     1.9350 hc         1 3F6       0.062950
     41 H5           3.0070     0.1230     1.4450 hc         1 3F6       0.062950
     42 H6           1.8420     2.0920     1.6570 h1         1 3F6       0.059450
     43 H7           1.4600     1.0700     3.2130 h1         1 3F6       0.059450
     44 H8          -2.2560     2.4090     2.3680 ha         1 3F6       0.158000
     45 H9          -2.2400    -0.1950    -1.0440 ha         1 3F6       0.123000
     46 H10         -4.6330     0.1730    -1.3630 ha         1 3F6       0.132000
     47 H11         -6.9780     1.5660    -0.2380 ha         1 3F6       0.153000
     48 H12         -4.9070     3.3680     2.9440 hn         1 3F6       0.301700
     49 H13         -8.7490     2.4590     0.3710 ha         1 3F6       0.134000
     50 H14        -10.8380     3.5180     1.1080 ha         1 3F6       0.134000
     51 H15         -6.6620     4.2930     3.6480 ha         1 3F6       0.134000
     52 H16         -8.7520     5.3520     4.3850 ha         1 3F6       0.134000
     53 H17        -12.5830     4.4740     1.7050 ha         1 3F6       0.153000
     54 H18        -10.5810     6.2230     4.9590 hn         1 3F6       0.301700
     55 H19        -12.7830     7.6380     6.1500 ha         1 3F6       0.158000
     56 H20        -15.2440     5.5490     2.3840 ha         1 3F6       0.132000
     57 H21        -16.4230     6.9890     3.9650 ha         1 3F6       0.123000
     58 H22        -14.6880    10.4770     8.3300 h1         1 3F6       0.059450
     59 H23        -15.5520     9.0790     8.9880 h1         1 3F6       0.059450
     60 H24        -17.2170    10.5990     8.4540 hc         1 3F6       0.062950
     61 H25        -16.4330    10.8740     6.7420 hc         1 3F6       0.062950
     62 H26        -17.5980     8.3420     7.7940 h1         1 3F6       0.049450
     63 H27        -18.3960     9.5450     6.5510 h1         1 3F6       0.049450
     64 H28        -17.1950     8.2190     5.0610 hn         1 3F6       0.436300
@<TRIPOS>BOND
     1     3     4 1
     2     3     2 1
     3     4     5 1
     4     2     1 1
     5     5     6 2
     6     1     6 1
     7     6     7 1
     8     7     9 ar
     9     7     8 ar
    10     9    10 ar
    11     8    13 ar
    12    10    11 ar
    13    13    11 ar
    14    13    14 1
    15    11    12 1
    16    14    15 1
    17    12    15 2
    18    15    16 1
    19    16    17 ar
    20    16    19 ar
    21    17    18 ar
    22    19    20 ar
    23    18    21 ar
    24    20    21 ar
    25    21    22 1
    26    22    23 2
    27    22    24 1
    28    23    27 1
    29    24    25 1
    30    27    25 ar
    31    27    28 ar
    32    25    26 ar
    33    28    29 ar
    34    26    30 ar
    35    29    30 ar
    36    30    31 1
    37    31    36 1
    38    31    32 2
    39    36    35 1
    40    32    33 1
    41    35    34 1
    42    33    34 1
    43     1    37 1
    44     2    38 1
    45     2    39 1
    46     3    40 1
    47     3    41 1
    48     4    42 1
    49     4    43 1
    50     8    44 1
    51     9    45 1
    52    10    46 1
    53    12    47 1
    54    14    48 1
    55    17    49 1
    56    18    50 1
    57    19    51 1
    58    20    52 1
    59    23    53 1
    60    24    54 1
    61    26    55 1
    62    28    56 1
    63    29    57 1
    64    33    58 1
    65    33    59 1
    66    34    60 1
    67    34    61 1
    68    35    62 1
    69    35    63 1
    70    36    64 1
@<TRIPOS>SUBSTRUCTURE
     1 3F6         1 TEMP              0 ****  ****    0 ROOT
