@<TRIPOS>MOLECULE
3F7
   28    30     1     0     0
SMALL
bcc


@<TRIPOS>ATOM
      1 OAA          0.0000     0.0000     0.0000 o          1 3F7      -0.587750
      2 CAO          1.2140     0.0000     0.0000 c          1 3F7       0.583700
      3 CAI          2.0790     0.0000     1.2010 cc         1 3F7      -0.152700
      4 CAJ          3.3500    -0.0010     0.7640 cd         1 3F7      -0.152700
      5 CAP          3.2920    -0.0010    -0.7150 c          1 3F7       0.583700
      6 OAB          4.2500    -0.0020    -1.4620 o          1 3F7      -0.587750
      7 NAS          2.0010    -0.0060    -1.0900 n          1 3F7       0.027900
      8 CAM          1.5440    -0.0130    -2.4180 ca         1 3F7      -0.106400
      9 CAF          2.4550    -0.0190    -3.4650 ca         1 3F7      -0.116000
     10 CAH          2.0060    -0.0260    -4.7700 ca         1 3F7      -0.116000
     11 CAE          0.1820    -0.0190    -2.6830 ca         1 3F7      -0.116000
     12 CAG         -0.2670    -0.0270    -3.9880 ca         1 3F7      -0.116000
     13 CAN          0.6440    -0.0260    -5.0350 ca         1 3F7      -0.106400
     14 NAT          0.1870    -0.0340    -6.3630 n          1 3F7       0.027900
     15 CAQ          0.9740    -0.0350    -7.4530 c          1 3F7       0.583700
     16 OAC          2.1880    -0.0290    -7.4530 o          1 3F7      -0.587750
     17 CAK          0.1090    -0.0430    -8.6540 cc         1 3F7      -0.152700
     18 CAL         -1.1620    -0.0470    -8.2170 cd         1 3F7      -0.152700
     19 CAR         -1.1040    -0.0480    -6.7380 c          1 3F7       0.583700
     20 OAD         -2.0610    -0.0500    -5.9910 o          1 3F7      -0.587750
     21 H1           1.8040     0.5910     2.0660 ha         1 3F7       0.151000
     22 H2           4.0990    -0.5910     1.2770 ha         1 3F7       0.151000
     23 H3           3.5190    -0.0180    -3.2580 ha         1 3F7       0.160750
     24 H4           2.7170    -0.0280    -5.5880 ha         1 3F7       0.160750
     25 H5          -0.5290    -0.0190    -1.8660 ha         1 3F7       0.160750
     26 H6          -1.3300    -0.0290    -4.1950 ha         1 3F7       0.160750
     27 H7           0.3870    -0.6350    -9.5180 ha         1 3F7       0.151000
     28 H8          -1.9130     0.5410    -8.7300 ha         1 3F7       0.151000
@<TRIPOS>BOND
     1     1     2 2   
     2     2     3 1   
     3     2     7 1   
     4     3     4 2   
     5     3    21 1   
     6     4     5 1   
     7     4    22 1   
     8     5     6 2   
     9     5     7 1   
    10     7     8 1   
    11     8     9 ar  
    12     8    11 ar  
    13     9    10 ar  
    14     9    23 1   
    15    10    13 ar  
    16    10    24 1   
    17    11    12 ar  
    18    11    25 1   
    19    12    13 ar  
    20    12    26 1   
    21    13    14 1   
    22    14    15 1   
    23    14    19 1   
    24    15    16 2   
    25    15    17 1   
    26    17    18 2   
    27    17    27 1   
    28    18    19 1   
    29    18    28 1   
    30    19    20 2   
@<TRIPOS>SUBSTRUCTURE
     1 3F7         1 TEMP              0 ****  ****    0 ROOT
