@<TRIPOS>MOLECULE
molecule
   28    30     1     0     0
SMALL
bcc


@<TRIPOS>ATOM
      1 OAA          0.0000     0.0000     0.0000 o          1 3F7      -0.555500
      2 CAO          1.2140     0.0000     0.0000 c          1 3F7       0.674700
      3 CAI          2.0790     0.0000     1.2010 cc         1 3F7      -0.173450
      4 CAJ          3.3500    -0.0010     0.7640 cd         1 3F7      -0.173450
      5 CAP          3.2920    -0.0010    -0.7150 c          1 3F7       0.674700
      6 OAB          4.2500    -0.0020    -1.4620 o          1 3F7      -0.555500
      7 NAS          2.0010    -0.0060    -1.0900 n          1 3F7      -0.390600
      8 CAM          1.5440    -0.0130    -2.4180 ca         1 3F7       0.033600
      9 CAF          2.4550    -0.0190    -3.4650 ca         1 3F7      -0.134000
     10 CAH          2.0060    -0.0260    -4.7700 ca         1 3F7      -0.134000
     11 CAE          0.1820    -0.0190    -2.6830 ca         1 3F7      -0.134000
     12 CAG         -0.2670    -0.0270    -3.9880 ca         1 3F7      -0.134000
     13 CAN          0.6440    -0.0260    -5.0350 ca         1 3F7       0.033600
     14 NAT          0.1870    -0.0340    -6.3630 n          1 3F7      -0.390600
     15 CAQ          0.9740    -0.0350    -7.4530 c          1 3F7       0.674700
     16 OAC          2.1880    -0.0290    -7.4530 o          1 3F7      -0.555500
     17 CAK          0.1090    -0.0430    -8.6540 cd         1 3F7      -0.173450
     18 CAL         -1.1620    -0.0470    -8.2170 cc         1 3F7      -0.173450
     19 CAR         -1.1040    -0.0480    -6.7380 c          1 3F7       0.674700
     20 OAD         -2.0610    -0.0500    -5.9910 o          1 3F7      -0.555500
     21 H1           1.8040     0.5910     2.0660 ha         1 3F7       0.187000
     22 H2           4.0990    -0.5910     1.2770 ha         1 3F7       0.187000
     23 H3           3.5190    -0.0180    -3.2580 ha         1 3F7       0.180000
     24 H4           2.7170    -0.0280    -5.5880 ha         1 3F7       0.180000
     25 H5          -0.5290    -0.0190    -1.8660 ha         1 3F7       0.180000
     26 H6          -1.3300    -0.0290    -4.1950 ha         1 3F7       0.180000
     27 H7           0.3870    -0.6350    -9.5180 ha         1 3F7       0.187000
     28 H8          -1.9130     0.5410    -8.7300 ha         1 3F7       0.187000
@<TRIPOS>BOND
     1    20    19 2
     2     1     2 2
     3    11    12 ar
     4    11     8 ar
     5    12    13 ar
     6    19    18 1
     7    19    14 1
     8     2     3 1
     9     2     7 1
    10    18    17 2
    11     3     4 2
    12     8     7 1
    13     8     9 ar
    14    13    14 1
    15    13    10 ar
    16     7     5 1
    17    14    15 1
    18    17    15 1
    19     4     5 1
    20    15    16 2
    21     5     6 2
    22     9    10 ar
    23     3    21 1
    24     4    22 1
    25     9    23 1
    26    10    24 1
    27    11    25 1
    28    12    26 1
    29    17    27 1
    30    18    28 1
@<TRIPOS>SUBSTRUCTURE
     1 3F7         1 TEMP              0 ****  ****    0 ROOT
