@<TRIPOS>MOLECULE
3F8
   38    39     1     0     0
SMALL
bcc


@<TRIPOS>ATOM
      1 OAA          0.0000     0.0000     0.0000 o          1 3F8      -0.591500
      2 CAQ          1.2140     0.0000     0.0000 c          1 3F8       0.603450
      3 CAE          2.0790     0.0000     1.2000 cc         1 3F8      -0.158450
      4 CAF          3.3490    -0.0000     0.7630 cd         1 3F8      -0.158450
      5 CAR          3.2930    -0.0020    -0.7160 c          1 3F8       0.603450
      6 OAB          4.2490    -0.0030    -1.4630 o          1 3F8      -0.591500
      7 NAU          2.0010    -0.0060    -1.0910 n          1 3F8      -0.142400
      8 CAM          1.5250    -0.0090    -2.4760 c3         1 3F8       0.057000
      9 CAK          1.3640    -1.4530    -2.9570 c3         1 3F8       0.189400
     10 OAO          0.3350    -2.0950    -2.2020 os         1 3F8      -0.397100
     11 CAI          0.1040    -3.4560    -2.5750 c3         1 3F8       0.210900
     12 CAJ         -1.0110    -4.0390    -1.7060 c3         1 3F8       0.210900
     13 OAP         -2.2370    -3.3570    -1.9820 os         1 3F8      -0.397100
     14 CAL         -3.3500    -3.8290    -1.2200 c3         1 3F8       0.189400
     15 CAN         -4.6010    -3.0330    -1.5960 c3         1 3F8       0.057000
     16 NAV         -4.9480    -3.3010    -2.9930 n          1 3F8      -0.142400
     17 CAS         -5.7640    -4.2840    -3.4140 c          1 3F8       0.603450
     18 OAC         -6.3300    -5.0900    -2.7050 o          1 3F8      -0.591500
     19 CAG         -5.8540    -4.2160    -4.8890 cc         1 3F8      -0.158450
     20 CAH         -5.0820    -3.1880    -5.2780 cd         1 3F8      -0.158450
     21 CAT         -4.5050    -2.5980    -4.0510 c          1 3F8       0.603450
     22 OAD         -3.7570    -1.6430    -4.0060 o          1 3F8      -0.591500
     23 H1           1.8050     0.5900     2.0660 ha         1 3F8       0.141000
     24 H2           4.0990     0.5900     1.2750 ha         1 3F8       0.141000
     25 H3           0.5690     0.4980    -2.5300 h1         1 3F8       0.047700
     26 H4           2.2410     0.5040    -3.1060 h1         1 3F8       0.047700
     27 H5           1.0960    -1.4560    -4.0070 h1         1 3F8       0.001700
     28 H6           2.2970    -1.9850    -2.8210 h1         1 3F8       0.001700
     29 H7          -0.1900    -3.5000    -3.6170 h1         1 3F8      -0.002800
     30 H8           1.0120    -4.0290    -2.4310 h1         1 3F8      -0.002800
     31 H9          -0.7570    -3.9150    -0.6600 h1         1 3F8      -0.002800
     32 H10         -1.1270    -5.0940    -1.9270 h1         1 3F8      -0.002800
     33 H11         -3.5140    -4.8790    -1.4310 h1         1 3F8       0.001700
     34 H12         -3.1450    -3.7010    -0.1640 h1         1 3F8       0.001700
     35 H13         -5.4240    -3.3280    -0.9560 h1         1 3F8       0.047700
     36 H14         -4.4070    -1.9740    -1.4690 h1         1 3F8       0.047700
     37 H15         -5.8750    -5.1290    -5.4730 ha         1 3F8       0.141000
     38 H16         -5.4050    -2.5450    -6.0880 ha         1 3F8       0.141000
@<TRIPOS>BOND
     1     1     2 2   
     2     2     3 1   
     3     2     7 1   
     4     3     4 2   
     5     3    23 1   
     6     4     5 1   
     7     4    24 1   
     8     5     6 2   
     9     5     7 1   
    10     7     8 1   
    11     8     9 1   
    12     8    25 1   
    13     8    26 1   
    14     9    10 1   
    15     9    27 1   
    16     9    28 1   
    17    10    11 1   
    18    11    12 1   
    19    11    29 1   
    20    11    30 1   
    21    12    13 1   
    22    12    31 1   
    23    12    32 1   
    24    13    14 1   
    25    14    15 1   
    26    14    33 1   
    27    14    34 1   
    28    15    16 1   
    29    15    35 1   
    30    15    36 1   
    31    16    17 1   
    32    16    21 1   
    33    17    18 2   
    34    17    19 1   
    35    19    20 2   
    36    19    37 1   
    37    20    21 1   
    38    20    38 1   
    39    21    22 2   
@<TRIPOS>SUBSTRUCTURE
     1 3F8         1 TEMP              0 ****  ****    0 ROOT
