@<TRIPOS>MOLECULE
3F9
   67    71     1     0     0
SMALL
bcc


@<TRIPOS>ATOM
      1 N1           0.0000     0.0000     0.0000 n          1 3F9      -0.130800
      2 C4          -6.9090     4.7890     2.5720 ca         1 3F9      -0.105000
      3 C5           4.2070    -0.2280    -4.8850 ca         1 3F9      -0.089000
      4 C6           1.8780    -1.7410    -4.5750 ca         1 3F9      -0.089000
      5 C7           3.9520     0.6500    -2.6150 ca         1 3F9      -0.093000
      6 C8           3.2560     0.6950    -1.4490 ca         1 3F9      -0.054000
      7 C10         -6.3500     3.5660     2.8880 ca         1 3F9      -0.084000
      8 C13          2.3260    -0.9360    -3.5110 ca         1 3F9      -0.041000
      9 C15         -4.6020     4.6680     4.0970 ca         1 3F9      -0.089800
     10 C17          1.3480     0.0000     0.0000 c          1 3F9       0.602700
     11 C20          0.0800     3.5510     2.5130 c3         1 3F9      -0.023400
     12 C21          0.3470     2.1280     2.0140 c3         1 3F9      -0.038400
     13 C22         -0.8170     3.4920     3.7510 c3         1 3F9       0.142800
     14 C24         -0.9870     1.4420     1.7120 c3         1 3F9      -0.067700
     15 C26         -0.7310     0.0000     1.2690 c3         1 3F9       0.038000
     16 C28         -1.3100    -1.3870    -1.5300 c3         1 3F9       0.180400
     17 C1           3.7500    -1.0250    -5.8890 ca         1 3F9      -0.094000
     18 C2           2.5890    -1.7800    -5.7340 ca         1 3F9      -0.098000
     19 C3          -6.3140     5.9540     3.0180 ca         1 3F9      -0.105000
     20 C9          -5.1630     5.8940     3.7790 ca         1 3F9      -0.084000
     21 C11          1.6170    -0.8740    -2.3020 ca         1 3F9      -0.111000
     22 C12          3.5040    -0.1650    -3.6700 ca         1 3F9      -0.023000
     23 C14          2.0870    -0.0670    -1.2790 ca         1 3F9      -0.136600
     24 C16         -5.1960     3.5030     3.6500 ca         1 3F9      -0.089800
     25 C18         -3.3640     4.3360     4.9030 c3         1 3F9       0.029900
     26 C19         -4.3990     2.3080     4.1260 c3         1 3F9       0.029900
     27 C23         -1.8540     1.4440     2.9730 c3         1 3F9       0.149800
     28 C25         -3.0230     2.8760     4.5350 c3         1 3F9       0.125500
     29 C27         -0.7330     0.0060    -1.2680 c3         1 3F9       0.004000
     30 N2          -2.0810     2.8280     3.4090 n3         1 3F9      -0.525600
     31 O1           1.9560     0.0560     1.0510 o          1 3F9      -0.643100
     32 O2          -2.3320    -1.6680    -0.5710 os         1 3F9      -0.415600
     33 C33         -2.9390    -2.9510    -0.7280 c3         1 3F9       0.252700
     34 H2           5.1110     0.3540    -5.0210 ha         1 3F9       0.108000
     35 H3           0.9780    -2.3340    -4.4680 ha         1 3F9       0.103000
     36 H4           4.8510     1.2420    -2.7320 ha         1 3F9       0.110000
     37 H5           3.6080     1.3240    -0.6410 ha         1 3F9       0.120000
     38 H6          -6.8160     2.6530     2.5380 ha         1 3F9       0.099500
     39 H7          -0.4150     4.1180     1.7350 hc         1 3F9       0.018200
     40 H8           1.0200     4.0240     2.7710 hc         1 3F9       0.018200
     41 H9           0.8750     1.5710     2.7790 hc         1 3F9       0.031200
     42 H10          0.9450     2.1690     1.1110 hc         1 3F9       0.031200
     43 H11         -0.3170     2.9330     4.5320 h1         1 3F9       0.012700
     44 H12         -1.0220     4.4990     4.0940 h1         1 3F9       0.012700
     45 H13         -1.4980     1.9810     0.9230 hc         1 3F9       0.039700
     46 H14         -1.6770    -0.5120     1.1410 h1         1 3F9       0.046200
     47 H15         -0.1450    -0.5100     2.0240 h1         1 3F9       0.046200
     48 H16         -0.5220    -2.1260    -1.4450 h1         1 3F9       0.002700
     49 H17         -1.7310    -1.4220    -2.5270 h1         1 3F9       0.002700
     50 H18          4.2980    -1.0730    -6.8220 ha         1 3F9       0.102000
     51 H19          2.2470    -2.4070    -6.5490 ha         1 3F9       0.102000
     52 H20         -6.7500     6.9140     2.7710 ha         1 3F9       0.101000
     53 H21         -4.6980     6.8080     4.1280 ha         1 3F9       0.099500
     54 H22          0.7160    -1.4590    -2.1660 ha         1 3F9       0.135000
     55 H23         -3.5920     4.4010     5.9600 hc         1 3F9       0.029950
     56 H24         -2.5510     4.9860     4.6040 hc         1 3F9       0.029950
     57 H25         -4.8830     1.8510     4.9810 hc         1 3F9       0.029950
     58 H26         -4.2840     1.5900     3.3230 hc         1 3F9       0.029950
     59 H27         -2.8060     0.9740     2.7560 h1         1 3F9       0.015200
     60 H28         -1.3470     0.8980     3.7590 h1         1 3F9       0.015200
     61 H29         -2.6310     2.3470     5.3960 h1         1 3F9       0.013700
     62 H30         -0.0600     0.2760    -2.0730 h1         1 3F9       0.050200
     63 H31         -1.5400     0.7270    -1.2150 h1         1 3F9       0.050200
     64 H33         -2.1880    -3.7230    -0.6140 h1         1 3F9      -0.010633
     65 H34         -3.3830    -3.0220    -1.7140 h1         1 3F9      -0.010633
     66 H35         -3.7080    -3.0810     0.0240 h1         1 3F9      -0.010633
     67 H1          -7.8120     4.8340     1.9750 ha         1 3F9       0.101000
@<TRIPOS>BOND
     1     1    10 1   
     2     1    15 1   
     3     1    29 1   
     4     2     7 ar  
     5     2    19 ar  
     6     2    67 1   
     7     3    17 ar  
     8     3    22 ar  
     9     3    34 1   
    10     4     8 ar  
    11     4    18 ar  
    12     4    35 1   
    13     5     6 ar  
    14     5    22 ar  
    15     5    36 1   
    16     6    23 ar  
    17     6    37 1   
    18     7    24 ar  
    19     7    38 1   
    20     8    21 ar  
    21     8    22 ar  
    22     9    20 ar  
    23     9    24 ar  
    24     9    25 1   
    25    10    23 1   
    26    10    31 2   
    27    11    12 1   
    28    11    13 1   
    29    11    39 1   
    30    11    40 1   
    31    12    14 1   
    32    12    41 1   
    33    12    42 1   
    34    13    30 1   
    35    13    43 1   
    36    13    44 1   
    37    14    15 1   
    38    14    27 1   
    39    14    45 1   
    40    15    46 1   
    41    15    47 1   
    42    16    29 1   
    43    16    32 1   
    44    16    48 1   
    45    16    49 1   
    46    17    18 ar  
    47    17    50 1   
    48    18    51 1   
    49    19    20 ar  
    50    19    52 1   
    51    20    53 1   
    52    21    23 ar  
    53    21    54 1   
    54    24    26 1   
    55    25    28 1   
    56    25    55 1   
    57    25    56 1   
    58    26    28 1   
    59    26    57 1   
    60    26    58 1   
    61    27    30 1   
    62    27    59 1   
    63    27    60 1   
    64    28    30 1   
    65    28    61 1   
    66    29    62 1   
    67    29    63 1   
    68    32    33 1   
    69    33    64 1   
    70    33    65 1   
    71    33    66 1   
@<TRIPOS>SUBSTRUCTURE
     1 3F9         1 TEMP              0 ****  ****    0 ROOT
