@<TRIPOS>MOLECULE
molecule
   67    71     1     0     0
SMALL
bcc


@<TRIPOS>ATOM
      1 N1           0.0000     0.0000     0.0000 n          1 3F9      -0.476800
      2 C4          -6.9090     4.7890     2.5720 ca         1 3F9      -0.130000
      3 C5           4.2070    -0.2280    -4.8850 ca         1 3F9      -0.118000
      4 C6           1.8780    -1.7410    -4.5750 ca         1 3F9      -0.115000
      5 C7           3.9520     0.6500    -2.6150 ca         1 3F9      -0.122000
      6 C8           3.2560     0.6950    -1.4490 ca         1 3F9      -0.083000
      7 C10         -6.3500     3.5660     2.8880 ca         1 3F9      -0.115000
      8 C13          2.3260    -0.9360    -3.5110 ca         1 3F9      -0.046000
      9 C15         -4.6020     4.6680     4.0970 ca         1 3F9      -0.080800
     10 C17          1.3480     0.0000     0.0000 c          1 3F9       0.669700
     11 C20          0.0800     3.5510     2.5130 c3         1 3F9      -0.080400
     12 C21          0.3470     2.1280     2.0140 c3         1 3F9      -0.073400
     13 C22         -0.8170     3.4920     3.7510 c3         1 3F9       0.160800
     14 C24         -0.9870     1.4420     1.7120 c3         1 3F9      -0.088700
     15 C26         -0.7310     0.0000     1.2690 c3         1 3F9       0.108000
     16 C28         -1.3100    -1.3870    -1.5300 c3         1 3F9       0.109400
     17 C1           3.7500    -1.0250    -5.8890 ca         1 3F9      -0.119000
     18 C2           2.5890    -1.7800    -5.7340 ca         1 3F9      -0.125000
     19 C3          -6.3140     5.9540     3.0180 ca         1 3F9      -0.130000
     20 C9          -5.1630     5.8940     3.7790 ca         1 3F9      -0.115000
     21 C11          1.6170    -0.8740    -2.3020 ca         1 3F9      -0.112000
     22 C12          3.5040    -0.1650    -3.6700 ca         1 3F9      -0.022000
     23 C14          2.0870    -0.0670    -1.2790 ca         1 3F9      -0.134600
     24 C16         -5.1960     3.5030     3.6500 ca         1 3F9      -0.080800
     25 C18         -3.3640     4.3360     4.9030 c3         1 3F9      -0.032600
     26 C19         -4.3990     2.3080     4.1260 c3         1 3F9      -0.032600
     27 C23         -1.8540     1.4440     2.9730 c3         1 3F9       0.167800
     28 C25         -3.0230     2.8760     4.5350 c3         1 3F9       0.168500
     29 C27         -0.7330     0.0060    -1.2680 c3         1 3F9       0.088000
     30 N2          -2.0810     2.8280     3.4090 n3         1 3F9      -0.718600
     31 O1           1.9560     0.0560     1.0510 o          1 3F9      -0.602100
     32 O2          -2.3320    -1.6680    -0.5710 os         1 3F9      -0.429600
     33 C33         -2.9390    -2.9510    -0.7280 c3         1 3F9       0.126700
     34 H2           5.1110     0.3540    -5.0210 ha         1 3F9       0.135000
     35 H3           0.9780    -2.3340    -4.4680 ha         1 3F9       0.130000
     36 H4           4.8510     1.2420    -2.7320 ha         1 3F9       0.138000
     37 H5           3.6080     1.3240    -0.6410 ha         1 3F9       0.150000
     38 H6          -6.8160     2.6530     2.5380 ha         1 3F9       0.125500
     39 H7          -0.4150     4.1180     1.7350 hc         1 3F9       0.047200
     40 H8           1.0200     4.0240     2.7710 hc         1 3F9       0.047200
     41 H9           0.8750     1.5710     2.7790 hc         1 3F9       0.052700
     42 H10          0.9450     2.1690     1.1110 hc         1 3F9       0.052700
     43 H11         -0.3170     2.9330     4.5320 h1         1 3F9       0.033200
     44 H12         -1.0220     4.4990     4.0940 h1         1 3F9       0.033200
     45 H13         -1.4980     1.9810     0.9230 hc         1 3F9       0.064700
     46 H14         -1.6770    -0.5120     1.1410 h1         1 3F9       0.070700
     47 H15         -0.1450    -0.5100     2.0240 h1         1 3F9       0.070700
     48 H16         -0.5220    -2.1260    -1.4450 h1         1 3F9       0.032200
     49 H17         -1.7310    -1.4220    -2.5270 h1         1 3F9       0.032200
     50 H18          4.2980    -1.0730    -6.8220 ha         1 3F9       0.131000
     51 H19          2.2470    -2.4070    -6.5490 ha         1 3F9       0.130000
     52 H20         -6.7500     6.9140     2.7710 ha         1 3F9       0.127000
     53 H21         -4.6980     6.8080     4.1280 ha         1 3F9       0.125500
     54 H22          0.7160    -1.4590    -2.1660 ha         1 3F9       0.147000
     55 H23         -3.5920     4.4010     5.9600 hc         1 3F9       0.058950
     56 H24         -2.5510     4.9860     4.6040 hc         1 3F9       0.058950
     57 H25         -4.8830     1.8510     4.9810 hc         1 3F9       0.058950
     58 H26         -4.2840     1.5900     3.3230 hc         1 3F9       0.058950
     59 H27         -2.8060     0.9740     2.7560 h1         1 3F9       0.035200
     60 H28         -1.3470     0.8980     3.7590 h1         1 3F9       0.035200
     61 H29         -2.6310     2.3470     5.3960 h1         1 3F9       0.031700
     62 H30         -0.0600     0.2760    -2.0730 h1         1 3F9       0.073200
     63 H31         -1.5400     0.7270    -1.2150 h1         1 3F9       0.073200
     64 H33         -2.1880    -3.7230    -0.6140 h1         1 3F9       0.031700
     65 H34         -3.3830    -3.0220    -1.7140 h1         1 3F9       0.031700
     66 H35         -3.7080    -3.0810     0.0240 h1         1 3F9       0.031700
     67 H1          -7.8120     4.8340     1.9750 ha         1 3F9       0.127000
@<TRIPOS>BOND
     1     2     7 ar
     2     2    19 ar
     3     7    24 ar
     4    19    20 ar
     5    24     9 ar
     6    24    26 1
     7    20     9 ar
     8     9    25 1
     9    26    28 1
    10    25    28 1
    11    28    30 1
    12    29    16 1
    13    29     1 1
    14    31    10 2
    15    30    27 1
    16    30    13 1
    17    27    14 1
    18    16    32 1
    19     1    10 1
    20     1    15 1
    21    10    23 1
    22    33    32 1
    23    14    15 1
    24    14    12 1
    25    13    11 1
    26     6    23 ar
    27     6     5 ar
    28    23    21 ar
    29    11    12 1
    30     5    22 ar
    31    21     8 ar
    32    22     8 ar
    33    22     3 ar
    34     8     4 ar
    35     3    17 ar
    36     4    18 ar
    37    17    18 ar
    38     2    67 1
    39     3    34 1
    40     4    35 1
    41     5    36 1
    42     6    37 1
    43     7    38 1
    44    11    39 1
    45    11    40 1
    46    12    41 1
    47    12    42 1
    48    13    43 1
    49    13    44 1
    50    14    45 1
    51    15    46 1
    52    15    47 1
    53    16    48 1
    54    16    49 1
    55    17    50 1
    56    18    51 1
    57    19    52 1
    58    20    53 1
    59    21    54 1
    60    25    55 1
    61    25    56 1
    62    26    57 1
    63    26    58 1
    64    27    59 1
    65    27    60 1
    66    28    61 1
    67    29    62 1
    68    29    63 1
    69    33    64 1
    70    33    65 1
    71    33    66 1
@<TRIPOS>SUBSTRUCTURE
     1 3F9         1 TEMP              0 ****  ****    0 ROOT
