@<TRIPOS>MOLECULE
3FA
   14    14     1     0     0
SMALL
bcc


@<TRIPOS>ATOM
      1 O1          0.0410   -0.1740   -0.1880 oh        1 3FA     -0.509100
      2 C1          1.4120   -0.0700   -0.0900 ca        1 3FA      0.005100
      3 C3          2.0970    0.0510    1.1370 ca        1 3FA      0.081900
      4 F1          1.3890    0.0680    2.2930 f         1 3FA     -0.143900
      5 C5          3.4980    0.1520    1.1500 ca        1 3FA     -0.162000
      6 C6          4.1990    0.1320   -0.0530 ca        1 3FA     -0.104000
      7 C4          3.5390    0.0130   -1.2730 ca        1 3FA     -0.145000
      8 C2          2.1410   -0.0880   -1.2960 ca        1 3FA      0.133100
      9 O2          1.5350   -0.2030   -2.5230 oh        1 3FA     -0.490100
     10 HO1        -0.3220   -0.1460    0.7110 ho        1 3FA      0.440000
     11 H5          4.0230    0.2460    2.1110 ha        1 3FA      0.152000
     12 H6          5.2980    0.2110   -0.0390 ha        1 3FA      0.143000
     13 H4          4.0920   -0.0030   -2.2230 ha        1 3FA      0.158000
     14 HO2         0.5760   -0.2630   -2.3820 ho        1 3FA      0.441000
@<TRIPOS>BOND
     1    1    2 1   
     2    1   10 1   
     3    2    3 ar  
     4    2    8 ar  
     5    3    4 1   
     6    3    5 ar  
     7    5    6 ar  
     8    5   11 1   
     9    6    7 ar  
    10    6   12 1   
    11    7    8 ar  
    12    7   13 1   
    13    8    9 1   
    14    9   14 1   
@<TRIPOS>SUBSTRUCTURE
     1 3FA         1 TEMP              0 ****  ****    0 ROOT
