@<TRIPOS>MOLECULE
molecule
   14    14     1     0     0
SMALL
bcc


@<TRIPOS>ATOM
      1 O1           0.0000     0.0000     0.0000 oh         1 3FA      -0.500100
      2 C1           1.3610     0.0000     0.0000 ca         1 3FA       0.050100
      3 C3           2.0570     0.0000     1.2000 ca         1 3FA       0.118900
      4 F1           1.3830     0.0060     2.3710 f          1 3FA      -0.129900
      5 C5           3.4400    -0.0000     1.1970 ca         1 3FA      -0.168000
      6 C6           4.1310    -0.0070    -0.0000 ca         1 3FA      -0.097000
      7 C4           3.4440    -0.0120    -1.1990 ca         1 3FA      -0.168000
      8 C2           2.0580    -0.0120    -1.2040 ca         1 3FA       0.113100
      9 O2           1.3800    -0.0190    -2.3830 oh         1 3FA      -0.509100
     10 HO1         -0.3140     0.8820     0.1100 ho         1 3FA       0.426000
     11 H5           3.9830     0.0020     2.1350 ha         1 3FA       0.150000
     12 H6           5.2150    -0.0080     0.0010 ha         1 3FA       0.142000
     13 H4           3.9880    -0.0200    -2.1360 ha         1 3FA       0.146000
     14 HO2          1.4070    -0.8850    -2.7560 ho         1 3FA       0.428000
@<TRIPOS>BOND
     1     1     2 1   
     2     1    10 1   
     3     2     3 ar  
     4     2     8 ar  
     5     3     4 1   
     6     3     5 ar  
     7     5     6 ar  
     8     5    11 1   
     9     6     7 ar  
    10     6    12 1   
    11     7     8 ar  
    12     7    13 1   
    13     8     9 1   
    14     9    14 1   
@<TRIPOS>SUBSTRUCTURE
     1 3FA         1 TEMP              0 ****  ****    0 ROOT
