@<TRIPOS>MOLECULE
3FB
   26    26     1     0     0
SMALL
bcc


@<TRIPOS>ATOM
      1 N            0.0000     0.0000     0.0000 nz         1 3FB       0.037400
      2 CA           1.4690     0.0000     0.0000 c3         1 3FB      -0.045500
      3 CB           1.9800     0.0000     1.4420 c3         1 3FB       0.017900
      4 CG           1.5810     1.2870     2.1160 ca         1 3FB      -0.143300
      5 CD1          0.3760     1.3710     2.7870 ca         1 3FB      -0.103500
      6 CE1          0.0090     2.5530     3.4060 ca         1 3FB      -0.084000
      7 CH           0.8490     3.6490     3.3540 ca         1 3FB      -0.085000
      8 CE2          2.0560     3.5650     2.6830 ca         1 3FB      -0.084000
      9 CD2          2.4230     2.3820     2.0690 ca         1 3FB      -0.103500
     10 CCC          1.9780    -1.2490    -0.7220 c3         1 3FB      -0.158400
     11 C            1.5780    -1.1880    -2.1750 c          1 3FB       0.958600
     12 O            1.9210    -2.1840    -3.0070 o          1 3FB      -0.857300
     13 OXT          0.9510    -0.2420    -2.5890 o          1 3FB      -0.857300
     14 H           -0.3340    -0.4490    -0.8300 hn         1 3FB       0.227800
     15 HN2         -0.3340    -0.4940     0.8040 hn         1 3FB       0.227800
     16 HA           1.8300     0.8840    -0.5110 hx         1 3FB       0.103700
     17 HB1          3.0590    -0.0880     1.4430 hc         1 3FB       0.044200
     18 HB2          1.5490    -0.8370     1.9780 hc         1 3FB       0.044200
     19 HD1         -0.2820     0.5110     2.8280 ha         1 3FB       0.105500
     20 HE1         -0.9350     2.6190     3.9320 ha         1 3FB       0.111500
     21 HH           0.5620     4.5750     3.8370 ha         1 3FB       0.111000
     22 HE2          2.7150     4.4230     2.6440 ha         1 3FB       0.111500
     23 HD2          3.3680     2.3160     1.5430 ha         1 3FB       0.105500
     24 HC1          1.5460    -2.1310    -0.2650 hc         1 3FB       0.042700
     25 HC2          3.0580    -1.2950    -0.6460 hc         1 3FB       0.042700
     26 HN3         -0.3340     0.9430     0.0200 hn         1 3FB       0.227800
@<TRIPOS>BOND
     1     1     2 1   
     2     1    14 1   
     3     1    15 1   
     4     1    26 1   
     5     2     3 1   
     6     2    10 1   
     7     2    16 1   
     8     3     4 1   
     9     3    17 1   
    10     3    18 1   
    11     4     5 ar  
    12     4     9 ar  
    13     5     6 ar  
    14     5    19 1   
    15     6     7 ar  
    16     6    20 1   
    17     7     8 ar  
    18     7    21 1   
    19     8     9 ar  
    20     8    22 1   
    21     9    23 1   
    22    10    11 1   
    23    10    24 1   
    24    10    25 1   
    25    11    12 1   
    26    11    13 1   
@<TRIPOS>SUBSTRUCTURE
     1 3FB         1 TEMP              0 ****  ****    0 ROOT
