@<TRIPOS>MOLECULE
3FC
   75    74     1     0     0
SMALL
bcc


@<TRIPOS>ATOM
      1 C1         -0.7860    0.9970    0.0480 c3        1 3FC     -0.002000
      2 C2          1.6510    0.9310   -0.1250 c3        1 3FC      0.076000
      3 C3          2.4840    0.2900    0.9370 c3        1 3FC     -0.213000
      4 C4          3.9340    0.7030    0.7480 c3        1 3FC     -0.166000
      5 C5          4.8680    0.0490    1.7850 c3        1 3FC      0.009000
      6 N6          4.5070    0.3850    3.1400 n         1 3FC     -0.341000
      7 C7          4.6960   -0.5050    4.1710 c2        1 3FC      0.441000
      8 O8          5.0650   -1.7010    4.1040 o         1 3FC     -0.517000
      9 O9          4.3870    0.0020    5.3980 oh        1 3FC     -0.275000
     10 C10         0.9700    2.1620    5.3520 c2        1 3FC     -0.054000
     11 C11         0.9370    3.3930    4.8180 c2        1 3FC     -0.155000
     12 C12         0.6810    3.6320    3.4200 c2        1 3FC      0.061000
     13 N13         0.5270    2.8360    2.3380 n2        1 3FC     -0.202000
     14 N14         0.3140    3.5870    1.2670 n2        1 3FC     -0.200000
     15 C15         0.3310    4.8910    1.6280 c2        1 3FC      0.103000
     16 O16         0.5640    4.9720    3.0120 os        1 3FC     -0.096000
     17 C17         0.1680    6.1090    0.8930 c2        1 3FC     -0.044000
     18 C18        -0.3560    6.1080   -0.4880 c2        1 3FC     -0.093000
     19 C19         0.1740    7.0070   -1.3470 c2        1 3FC     -0.152000
     20 C20         1.0870    8.1390   -0.9390 c3        1 3FC     -0.099000
     21 C21         0.9400    8.4180    0.5410 c2        1 3FC     -0.091000
     22 C22         0.6430    7.3180    1.2060 c1        1 3FC     -0.029000
     23 C23         2.5450    7.8880   -1.4400 c3        1 3FC      0.426000
     24 F24         2.6230    7.7090   -2.7980 f         1 3FC     -0.157667
     25 F25         3.3980    8.9240   -1.1680 f         1 3FC     -0.157667
     26 F26         3.1600    6.7790   -0.9150 f         1 3FC     -0.157667
     27 C27         1.2470    1.8980    6.8010 c3        1 3FC     -0.042000
     28 C28         2.6180    2.4500    7.1770 c3        1 3FC     -0.207333
     29 C29         0.1760    2.5610    7.6610 c3        1 3FC     -0.207333
     30 C30         1.2350    0.3960    7.0570 c3        1 3FC     -0.207333
     31 O34         7.1040   -1.7500    1.3860 o         1 3FC     -0.452000
     32 N35         8.2360   -0.2270    0.1150 n         1 3FC     -0.364000
     33 N36         6.6140   -3.8820    3.2880 n3        1 3FC     -0.210000
     34 C37         7.8240   -4.5360    2.7970 c3        1 3FC     -0.131000
     35 C38         8.8100   -4.9470    3.8790 c2        1 3FC      0.181000
     36 O39         8.5300   -4.7740    5.0660 o         1 3FC     -0.267000
     37 C40         6.3110   -3.8690    4.5590 c1        1 3FC      0.476000
     38 O41         5.9060   -3.9220    5.6550 o         1 3FC      0.055000
     39 C31         6.2920    0.5200    1.4420 c2        1 3FC      0.170000
     40 O32         6.6420    1.6900    1.5520 o         1 3FC     -0.199000
     41 H11         0.4400    0.8930    0.3730 DU        1 3FC      0.035000
     42 H12        -0.9970    0.0370   -0.4640 hc        1 3FC      0.153333
     43 H13        -1.2410    1.1140    1.0560 hc        1 3FC      0.153333
     44 H21A       -0.8440    1.9020   -0.5900 hc        1 3FC      0.153333
     45 H22A        1.7990    2.0270   -0.2630 hc        1 3FC      0.158000
     46 H31         1.5340    0.3560   -1.0700 hc        1 3FC      0.158000
     47 H32         2.3940   -0.8290    0.8950 hc        1 3FC      0.139000
     48 H41         2.1290    0.6200    1.9540 hc        1 3FC      0.139000
     49 H42         4.2900    0.3870   -0.2690 hc        1 3FC      0.122000
     50 H5          4.0280    1.8210    0.8150 hc        1 3FC      0.122000
     51 HN6         4.8270   -1.0790    1.6770 h1        1 3FC      0.151000
     52 H10         4.4870   -0.7040    6.0640 ho        1 3FC      0.279000
     53 H111        0.7850    1.2670    4.7340 ha        1 3FC      0.122000
     54 H112        1.0940    4.3060    5.4210 ha        1 3FC      0.178000
     55 H18        -1.0780    5.3380   -0.7860 ha        1 3FC      0.156000
     56 H19        -0.0410    6.9670   -2.4270 ha        1 3FC      0.169000
     57 H21         0.7370    9.0820   -1.4600 hc        1 3FC      0.179000
     58 H22         0.9540    9.4510    0.9070 ha        1 3FC      0.198000
     59 H281        2.6690    3.5470    6.9750 hc        1 3FC      0.084556
     60 H282        2.8080    2.2810    8.2640 hc        1 3FC      0.084556
     61 H283        3.4170    1.9350    6.5900 hc        1 3FC      0.084556
     62 H291        0.1770    3.6660    7.5020 hc        1 3FC      0.084556
     63 H292        0.3770    2.3560    8.7410 hc        1 3FC      0.084556
     64 H293       -0.8330    2.1600    7.4040 hc        1 3FC      0.084556
     65 H301        0.2510   -0.0440    6.7670 hc        1 3FC      0.084556
     66 H302        1.4060    0.1950    8.1420 hc        1 3FC      0.084556
     67 H303        2.0440   -0.1030    6.4700 hc        1 3FC      0.084556
     68 H35         8.8870   -0.9080   -0.2000 hn        1 3FC      0.258500
     69 H371        6.2430   -3.1010    2.7360 hn        1 3FC      0.350000
     70 H372        7.4950   -5.4600    2.2320 h1        1 3FC      0.175000
     71 H381        8.3250   -3.8230    2.0740 h1        1 3FC      0.175000
     72 H382        9.7540   -5.4030    3.5150 h4        1 3FC      0.181000
     73 C33         7.2510   -0.5710    0.9770 c2        1 3FC      0.290000
     74 H62         4.3780    1.3480    3.3680 hn        1 3FC      0.272000
     75 H352        8.3890    0.7250   -0.1300 hn        1 3FC      0.258500
@<TRIPOS>BOND
     1    1   41 1   
     2    1   42 1   
     3    1   43 1   
     4    1   44 1   
     5    2    3 1   
     6    2   41 1   
     7    2   45 1   
     8    2   46 1   
     9    3    4 1   
    10    3   47 1   
    11    3   48 1   
    12    4    5 1   
    13    4   49 1   
    14    4   50 1   
    15    5    6 1   
    16    5   39 1   
    17    5   51 1   
    18    6    7 1   
    19    6   74 1   
    20    7    8 1   
    21    7    9 1   
    22    9   52 1   
    23   10   11 1   
    24   10   27 1   
    25   10   53 1   
    26   11   12 1   
    27   11   54 1   
    28   12   13 1   
    29   12   16 1   
    30   13   14 1   
    31   14   15 1   
    32   15   16 1   
    33   15   17 1   
    34   17   18 1   
    35   17   22 1   
    36   18   19 1   
    37   18   55 1   
    38   19   20 1   
    39   19   56 1   
    40   20   21 1   
    41   20   23 1   
    42   20   57 1   
    43   21   22 1   
    44   21   58 1   
    45   23   24 1   
    46   23   25 1   
    47   23   26 1   
    48   27   28 1   
    49   27   29 1   
    50   27   30 1   
    51   28   59 1   
    52   28   60 1   
    53   28   61 1   
    54   29   62 1   
    55   29   63 1   
    56   29   64 1   
    57   30   65 1   
    58   30   66 1   
    59   30   67 1   
    60   31   73 1   
    61   32   68 1   
    62   32   73 1   
    63   32   75 1   
    64   33   34 1   
    65   33   37 1   
    66   33   69 1   
    67   34   35 1   
    68   34   70 1   
    69   34   71 1   
    70   35   36 1   
    71   35   72 1   
    72   37   38 1   
    73   39   40 1   
    74   39   73 1   
@<TRIPOS>SUBSTRUCTURE
     1 3FC         1 TEMP              0 ****  ****    0 ROOT
