@<TRIPOS>MOLECULE
molecule
   61    65     1     0     0
SMALL
bcc


@<TRIPOS>ATOM
      1 C18          0.0000     0.0000     0.0000 ca         1 3FD      -0.102000
      2 C17          1.3820     0.0000     0.0000 ca         1 3FD      -0.117000
      3 C16          2.0740     0.0000     1.1980 ca         1 3FD       0.038400
      4 Cl20         3.8090    -0.0000     1.1990 cl         1 3FD      -0.079400
      5 C15          1.3810    -0.0000     2.3960 ca         1 3FD       0.025400
      6 C14         -0.0020    -0.0010     2.3940 ca         1 3FD      -0.095000
      7 C13         -0.6920    -0.0010     1.1960 ca         1 3FD      -0.114300
      8 C12         -2.1990     0.0010     1.1950 c3         1 3FD       0.309100
      9 N11         -2.6880    -1.3800     1.1930 nu         1 3FD      -0.878200
     10 C6          -4.0450    -1.6320     1.1920 cc         1 3FD       0.674700
     11 N7          -4.9820    -0.7160     1.1910 nd         1 3FD      -0.656100
     12 C8          -6.1990    -1.3160     1.1890 ca         1 3FD      -0.178200
     13 C4          -7.5250    -0.8530     1.1870 ca         1 3FD       0.773200
     14 N10         -7.8010     0.5040     1.1860 nv         1 3FD      -0.989500
     15 N1          -8.5070    -1.7480     1.1840 nb         1 3FD      -0.828000
     16 C2          -8.2530    -3.0430     1.1840 ca         1 3FD       0.721900
     17 N3          -7.0260    -3.5220     1.1860 nb         1 3FD      -0.783000
     18 C9          -5.9800    -2.7040     1.1880 ca         1 3FD       0.473800
     19 N5          -4.6150    -2.8750     1.1850 na         1 3FD      -0.276000
     20 C21         -3.9020    -4.1560     1.1780 c3         1 3FD       0.254800
     21 O22         -4.5150    -5.0670     0.2410 os         1 3FD      -0.372600
     22 C24         -4.0360    -4.8520     2.5510 c3         1 3FD       0.088100
     23 O26         -2.8700    -4.6210     3.3450 oh         1 3FD      -0.579800
     24 C25         -4.1620    -6.3520     2.1990 c3         1 3FD       0.097100
     25 O27         -3.0800    -7.0930     2.7660 oh         1 3FD      -0.574800
     26 C23         -4.0910    -6.3840     0.6560 c3         1 3FD       0.131100
     27 C28         -5.0380    -7.4490     0.1010 c3         1 3FD       0.145400
     28 O29         -4.9260    -7.4910    -1.3220 os         1 3FD      -0.410600
     29 C30         -5.7730    -8.4590    -1.9440 c3         1 3FD       0.183700
     30 C31         -5.5730    -8.4160    -3.4380 ca         1 3FD      -0.064300
     31 C32         -4.6120    -9.2190    -4.0260 ca         1 3FD      -0.110000
     32 C33         -4.4230    -9.1850    -5.3930 ca         1 3FD      -0.094000
     33 C34         -5.2050    -8.3390    -6.1820 ca         1 3FD      -0.015000
     34 C37         -5.0150    -8.2990    -7.6000 cg         1 3FD       0.239800
     35 N38         -4.8480    -8.2550    -8.7230 n1         1 3FD      -0.362800
     36 C35         -6.1740    -7.5320    -5.5810 ca         1 3FD      -0.094000
     37 C36         -6.3540    -7.5800    -4.2140 ca         1 3FD      -0.110000
     38 Cl21         2.2470    -0.0020     3.9010 cl         1 3FD      -0.081400
     39 H18         -0.5410     0.0000    -0.9380 ha         1 3FD       0.148000
     40 H17          1.9240     0.0000    -0.9380 ha         1 3FD       0.154000
     41 H14         -0.5450    -0.0010     3.3320 ha         1 3FD       0.156000
     42 H12         -2.5600     0.5110     2.0790 h1         1 3FD       0.060700
     43 H12A        -2.5580     0.5120     0.3100 h1         1 3FD       0.060700
     44 HN11        -2.0380    -2.1410     1.1710 hn         1 3FD       0.454800
     45 HN10        -8.7510     0.8220     1.1850 hn         1 3FD       0.448300
     46 HN1A        -7.0520     1.1680     1.1880 hn         1 3FD       0.448300
     47 H2          -9.0840    -3.7380     1.1820 h5         1 3FD       0.057100
     48 H21         -2.8570    -4.0110     0.9310 h2         1 3FD       0.084700
     49 H24         -4.9260    -4.5090     3.0640 h1         1 3FD       0.072700
     50 HO26        -3.1280    -4.4220     4.2300 ho         1 3FD       0.410000
     51 H25         -5.1140    -6.7390     2.5410 h1         1 3FD       0.054700
     52 HO27        -3.4180    -7.7200     3.3840 ho         1 3FD       0.404000
     53 H23         -3.0740    -6.5700     0.3320 h1         1 3FD       0.082700
     54 H28         -4.7760    -8.4160     0.5130 h1         1 3FD       0.037200
     55 H28A        -6.0570    -7.2040     0.3760 h1         1 3FD       0.037200
     56 H30         -5.5250    -9.4470    -1.5750 h1         1 3FD       0.032200
     57 H30A        -6.8080    -8.2360    -1.7120 h1         1 3FD       0.032200
     58 H32         -4.0060    -9.8750    -3.4130 ha         1 3FD       0.142500
     59 H33         -3.6710    -9.8150    -5.8520 ha         1 3FD       0.143500
     60 H35         -6.7850    -6.8740    -6.1870 ha         1 3FD       0.143500
     61 H36         -7.1050    -6.9540    -3.7460 ha         1 3FD       0.142500
@<TRIPOS>BOND
     1     1     2 ar
     2     1     7 ar
     3     2     3 ar
     4     3     4 1
     5     3     5 ar
     6     5     6 ar
     7     5    38 1
     8     6     7 ar
     9     7     8 1
    10     8     9 1
    11     9    10 1
    12    10    11 2
    13    10    19 1
    14    11    12 1
    15    12    13 ar
    16    12    18 ar
    17    13    14 1
    18    13    15 ar
    19    15    16 ar
    20    16    17 ar
    21    17    18 ar
    22    18    19 1
    23    19    20 1
    24    20    21 1
    25    20    22 1
    26    21    26 1
    27    22    23 1
    28    22    24 1
    29    24    25 1
    30    24    26 1
    31    26    27 1
    32    27    28 1
    33    28    29 1
    34    29    30 1
    35    30    31 ar
    36    30    37 ar
    37    31    32 ar
    38    32    33 ar
    39    33    34 1
    40    33    36 ar
    41    34    35 3
    42    36    37 ar
    43     1    39 1
    44     2    40 1
    45     6    41 1
    46     8    42 1
    47     8    43 1
    48     9    44 1
    49    14    45 1
    50    14    46 1
    51    16    47 1
    52    20    48 1
    53    22    49 1
    54    23    50 1
    55    24    51 1
    56    25    52 1
    57    26    53 1
    58    27    54 1
    59    27    55 1
    60    29    56 1
    61    29    57 1
    62    31    58 1
    63    32    59 1
    64    36    60 1
    65    37    61 1
@<TRIPOS>SUBSTRUCTURE
     1 3FD         1 TEMP              0 ****  ****    0 ROOT
