@<TRIPOS>MOLECULE
3FD
   61    65     1     0     0
SMALL
bcc


@<TRIPOS>ATOM
      1 C18          0.0000     0.0000     0.0000 ca         1 3FD      -0.073000
      2 C17          1.3820     0.0000     0.0000 ca         1 3FD      -0.090000
      3 C16          2.0740     0.0000     1.1980 ca         1 3FD      -0.034600
      4 Cl20         3.8090    -0.0000     1.1990 cl         1 3FD       0.002600
      5 C15          1.3810    -0.0000     2.3960 ca         1 3FD      -0.043600
      6 C14         -0.0020    -0.0010     2.3940 ca         1 3FD      -0.072000
      7 C13         -0.6920    -0.0010     1.1960 ca         1 3FD      -0.117300
      8 C12         -2.1990     0.0010     1.1950 c3         1 3FD       0.243100
      9 N11         -2.6880    -1.3800     1.1930 nu         1 3FD      -0.472200
     10 C6          -4.0450    -1.6320     1.1920 cc         1 3FD       0.347700
     11 N7          -4.9820    -0.7160     1.1910 nd         1 3FD      -0.583100
     12 C8          -6.1990    -1.3160     1.1890 ca         1 3FD      -0.204200
     13 C4          -7.5250    -0.8530     1.1870 ca         1 3FD       0.576200
     14 N10         -7.8010     0.5040     1.1860 nv         1 3FD      -0.491500
     15 N1          -8.5070    -1.7480     1.1840 nb         1 3FD      -0.734000
     16 C2          -8.2530    -3.0430     1.1840 ca         1 3FD       0.668900
     17 N3          -7.0260    -3.5220     1.1860 nb         1 3FD      -0.669000
     18 C9          -5.9800    -2.7040     1.1880 ca         1 3FD       0.272800
     19 N5          -4.6150    -2.8750     1.1850 na         1 3FD       0.173000
     20 C21         -3.9020    -4.1560     1.1780 c3         1 3FD       0.148800
     21 O22         -4.5150    -5.0670     0.2410 os         1 3FD      -0.361600
     22 C24         -4.0360    -4.8520     2.5510 c3         1 3FD       0.121100
     23 O26         -2.8700    -4.6210     3.3450 oh         1 3FD      -0.557800
     24 C25         -4.1620    -6.3520     2.1990 c3         1 3FD       0.138100
     25 O27         -3.0800    -7.0930     2.7660 oh         1 3FD      -0.553800
     26 C23         -4.0910    -6.3840     0.6560 c3         1 3FD       0.159100
     27 C28         -5.0380    -7.4490     0.1010 c3         1 3FD       0.210400
     28 O29         -4.9260    -7.4910    -1.3220 os         1 3FD      -0.399600
     29 C30         -5.7730    -8.4590    -1.9440 c3         1 3FD       0.267700
     30 C31         -5.5730    -8.4160    -3.4380 ca         1 3FD      -0.085300
     31 C32         -4.6120    -9.2190    -4.0260 ca         1 3FD      -0.078500
     32 C33         -4.4230    -9.1850    -5.3930 ca         1 3FD      -0.075000
     33 C34         -5.2050    -8.3390    -6.1820 ca         1 3FD       0.030000
     34 C37         -5.0150    -8.2990    -7.6000 cg         1 3FD       0.231800
     35 N38         -4.8480    -8.2550    -8.7230 n1         1 3FD      -0.382800
     36 C35         -6.1740    -7.5320    -5.5810 ca         1 3FD      -0.075000
     37 C36         -6.3540    -7.5800    -4.2140 ca         1 3FD      -0.078500
     38 Cl21         2.2470    -0.0020     3.9010 cl         1 3FD       0.001600
     39 H18         -0.5410     0.0000    -0.9380 ha         1 3FD       0.115000
     40 H17          1.9240     0.0000    -0.9380 ha         1 3FD       0.120000
     41 H14         -0.5450    -0.0010     3.3320 ha         1 3FD       0.122000
     42 H12         -2.5600     0.5110     2.0790 h1         1 3FD       0.027700
     43 H12A        -2.5580     0.5120     0.3100 h1         1 3FD       0.027700
     44 HN11        -2.0380    -2.1410     1.1710 hn         1 3FD       0.301800
     45 HN10        -8.7510     0.8220     1.1850 hn         1 3FD       0.275300
     46 HN1A        -7.0520     1.1680     1.1880 hn         1 3FD       0.275300
     47 H2          -9.0840    -3.7380     1.1820 h5         1 3FD      -0.007900
     48 H21         -2.8570    -4.0110     0.9310 h2         1 3FD       0.047700
     49 H24         -4.9260    -4.5090     3.0640 h1         1 3FD       0.034700
     50 HO26        -3.1280    -4.4220     4.2300 ho         1 3FD       0.394000
     51 H25         -5.1140    -6.7390     2.5410 h1         1 3FD       0.020700
     52 HO27        -3.4180    -7.7200     3.3840 ho         1 3FD       0.388000
     53 H23         -3.0740    -6.5700     0.3320 h1         1 3FD       0.046700
     54 H28         -4.7760    -8.4160     0.5130 h1         1 3FD       0.002200
     55 H28A        -6.0570    -7.2040     0.3760 h1         1 3FD       0.002200
     56 H30         -5.5250    -9.4470    -1.5750 h1         1 3FD      -0.004300
     57 H30A        -6.8080    -8.2360    -1.7120 h1         1 3FD      -0.004300
     58 H32         -4.0060    -9.8750    -3.4130 ha         1 3FD       0.114000
     59 H33         -3.6710    -9.8150    -5.8520 ha         1 3FD       0.113500
     60 H35         -6.7850    -6.8740    -6.1870 ha         1 3FD       0.113500
     61 H36         -7.1050    -6.9540    -3.7460 ha         1 3FD       0.114000
@<TRIPOS>BOND
     1     1     2 ar  
     2     1     7 ar  
     3     1    39 1   
     4     2     3 ar  
     5     2    40 1   
     6     3     4 1   
     7     3     5 ar  
     8     5     6 ar  
     9     5    38 1   
    10     6     7 ar  
    11     6    41 1   
    12     7     8 1   
    13     8     9 1   
    14     8    42 1   
    15     8    43 1   
    16     9    10 1   
    17     9    44 1   
    18    10    11 2   
    19    10    19 1   
    20    11    12 1   
    21    12    13 ar  
    22    12    18 ar  
    23    13    14 1   
    24    13    15 ar  
    25    14    45 1   
    26    14    46 1   
    27    15    16 ar  
    28    16    17 ar  
    29    16    47 1   
    30    17    18 ar  
    31    18    19 1   
    32    19    20 1   
    33    20    21 1   
    34    20    22 1   
    35    20    48 1   
    36    21    26 1   
    37    22    23 1   
    38    22    24 1   
    39    22    49 1   
    40    23    50 1   
    41    24    25 1   
    42    24    26 1   
    43    24    51 1   
    44    25    52 1   
    45    26    27 1   
    46    26    53 1   
    47    27    28 1   
    48    27    54 1   
    49    27    55 1   
    50    28    29 1   
    51    29    30 1   
    52    29    56 1   
    53    29    57 1   
    54    30    31 ar  
    55    30    37 ar  
    56    31    32 ar  
    57    31    58 1   
    58    32    33 ar  
    59    32    59 1   
    60    33    34 1   
    61    33    36 ar  
    62    34    35 3   
    63    36    37 ar  
    64    36    60 1   
    65    37    61 1   
@<TRIPOS>SUBSTRUCTURE
     1 3FD         1 TEMP              0 ****  ****    0 ROOT
