@<TRIPOS>MOLECULE
3FE
   38    41     1     0     0
SMALL
bcc


@<TRIPOS>ATOM
      1 N3           0.0000     0.0000     0.0000 nb         1 3FE      -0.624000
      2 C4           5.5740     0.9910    -1.7810 ca         1 3FE      -0.071000
      3 N2          -0.0820    -0.0010    -2.3120 nb         1 3FE      -0.686000
      4 C7           3.4370    -0.0010    -0.9210 cc         1 3FE      -0.048400
      5 C6           4.5770    -0.8650    -2.9560 ca         1 3FE      -0.057000
      6 C9           1.3320     0.0000     0.0000 ca         1 3FE       0.255800
      7 C13          1.3800    -1.1200    -4.4790 c3         1 3FE       0.107300
      8 C8           3.5360    -0.0000     0.4310 cd         1 3FE      -0.263100
      9 N5           8.5220     2.7090    -2.4600 n1         1 3FE      -0.386800
     10 C16          1.6590     1.2810    -4.3420 c3         1 3FE       0.107300
     11 C1           5.6150    -0.8530    -3.8660 ca         1 3FE      -0.108000
     12 C2           6.6410     0.0640    -3.7400 ca         1 3FE      -0.074000
     13 C3           6.6230     0.9960    -2.7000 ca         1 3FE       0.021000
     14 C5           4.5510     0.0570    -1.9090 ca         1 3FE      -0.001800
     15 N1           2.2850     0.0000     0.9830 na         1 3FE       0.281900
     16 C10          2.0030    -0.0010    -1.2350 ca         1 3FE      -0.313400
     17 C11          1.2450    -0.0020    -2.4130 ca         1 3FE       0.578200
     18 C12         -0.6730     0.0000    -1.1300 ca         1 3FE       0.648900
     19 N4           1.8610    -0.0020    -3.6520 nh         1 3FE      -0.518300
     20 C14          2.1280    -1.1180    -5.8140 c3         1 3FE       0.212900
     21 O1           1.9460     0.1470    -6.4560 os         1 3FE      -0.401600
     22 C15          2.4050     1.2580    -5.6800 c3         1 3FE       0.212900
     23 H1           5.5590     1.7130    -0.9740 ha         1 3FE       0.115000
     24 H2           3.7750    -1.5860    -3.0580 ha         1 3FE       0.120000
     25 H3           1.6470    -2.0520    -3.9970 h1         1 3FE       0.027700
     26 H4           0.3020    -1.0560    -4.5610 h1         1 3FE       0.027700
     27 H5           4.4570    -0.0110     1.0010 h4         1 3FE       0.151000
     28 H6           2.1260     2.0680    -3.7620 h1         1 3FE       0.027700
     29 H7           0.5960     1.4750    -4.4160 h1         1 3FE       0.027700
     30 H8           5.6320    -1.5700    -4.6770 ha         1 3FE       0.109000
     31 H9           7.4530     0.0700    -4.4570 ha         1 3FE       0.112000
     32 H10          2.1130     0.0020     1.9690 hn         1 3FE       0.122700
     33 H11         -1.7560     0.0000    -1.1150 h5         1 3FE       0.000100
     34 H12          1.6900    -1.8680    -6.4620 h1         1 3FE       0.012950
     35 H13          3.1670    -1.3640    -5.6340 h1         1 3FE       0.012950
     36 H14          3.4700     1.2380    -5.4860 h1         1 3FE       0.012950
     37 H15          2.1590     2.1560    -6.2330 h1         1 3FE       0.012950
     38 C17          7.6810     1.9530    -2.5770 cg         1 3FE       0.234800
@<TRIPOS>BOND
     1     1     6 ar  
     2     1    18 ar  
     3     2    13 ar  
     4     2    14 ar  
     5     2    23 1   
     6     3    17 ar  
     7     3    18 ar  
     8     4     8 2   
     9     4    14 1   
    10     4    16 1   
    11     5    11 ar  
    12     5    14 ar  
    13     5    24 1   
    14     6    15 1   
    15     6    16 ar  
    16     7    19 1   
    17     7    20 1   
    18     7    25 1   
    19     7    26 1   
    20     8    15 1   
    21     8    27 1   
    22     9    38 3   
    23    10    19 1   
    24    10    22 1   
    25    10    28 1   
    26    10    29 1   
    27    11    12 ar  
    28    11    30 1   
    29    12    13 ar  
    30    12    31 1   
    31    13    38 1   
    32    15    32 1   
    33    16    17 ar  
    34    17    19 1   
    35    18    33 1   
    36    20    21 1   
    37    20    34 1   
    38    20    35 1   
    39    21    22 1   
    40    22    36 1   
    41    22    37 1   
@<TRIPOS>SUBSTRUCTURE
     1 3FE         1 TEMP              0 ****  ****    0 ROOT
