@<TRIPOS>MOLECULE
3FF
   52    55     1     0     0
SMALL
bcc


@<TRIPOS>ATOM
      1 OAA          0.0000     0.0000     0.0000 o          1 3FF      -0.548100
      2 OAC         -1.5600     3.5600    -6.9080 oh         1 3FF      -0.573800
      3 FAE          8.6780     0.8980     2.0710 f          1 3FF      -0.124900
      4 CAF          7.5720    -0.2940    -1.7170 ca         1 3FF      -0.094000
      5 CAG          4.1430     0.0000     0.3470 ca         1 3FF      -0.167000
      6 CAH         -1.3060     4.2620    -2.1310 ca         1 3FF      -0.197000
      7 CAI         -0.8340     4.3900    -0.8370 ca         1 3FF      -0.055000
      8 CAJ          6.6240     0.2280    -0.8570 ca         1 3FF      -0.147000
      9 CAK          2.8270     0.0000     0.0000 ca         1 3FF      -0.022000
     10 CAL          9.2610    -0.0140    -0.0350 ca         1 3FF      -0.120000
     11 CAM          3.8890     2.2390     1.1880 ca         1 3FF      -0.169000
     12 CAN         -0.5140     1.9950    -2.2200 ca         1 3FF      -0.092000
     13 CAO         -3.5010     4.9750    -6.6420 c3         1 3FF       0.209400
     14 CAP          0.3310     3.4550     1.1650 c3         1 3FF       0.027900
     15 CAQ          1.8330     3.5240     1.2250 c3         1 3FF       0.031900
     16 CAR         -2.2540     4.1060    -4.6590 c3         1 3FF       0.185400
     17 NAS          6.0340     1.1580     1.2920 nu         1 3FF      -0.215000
     18 OAT         -1.6120     2.9580    -4.0990 os         1 3FF      -0.297900
     19 CAU          0.6200     1.0250    -0.2120 c          1 3FF       0.653300
     20 CAV          8.8890    -0.4150    -1.3070 ca         1 3FF       0.080900
     21 CAW          4.6890     1.1350     0.9430 ca         1 3FF       0.034600
     22 CAX          8.3160     0.5070     0.8300 ca         1 3FF       0.056900
     23 CAY         -1.1480     3.0710    -2.8270 ca         1 3FF       0.148100
     24 CAZ         -0.1980     3.3200    -0.2290 ca         1 3FF      -0.106300
     25 CBA          2.5470     2.2520     0.8490 ca         1 3FF      -0.001300
     26 CBB          6.9920     0.6300     0.4190 ca         1 3FF       0.002600
     27 CBC          2.0150     1.1260     0.2390 ca         1 3FF      -0.182600
     28 CBD         -0.0470     2.1380    -0.9160 ca         1 3FF      -0.112600
     29 CBE         -2.7050     3.7920    -6.0860 c3         1 3FF       0.178100
     30 HOAB        -4.6430     5.2930    -8.1990 ho         1 3FF       0.392000
     31 HOAC        -1.6200     2.7030    -7.2970 ho         1 3FF       0.399000
     32 HAF          7.2840    -0.6070    -2.7130 ha         1 3FF       0.121000
     33 HAG          4.7610    -0.8680     0.1520 ha         1 3FF       0.130000
     34 HAH         -1.8010     5.0990    -2.6070 ha         1 3FF       0.119000
     35 HAI         -0.9620     5.3230    -0.3010 ha         1 3FF       0.106000
     36 HAJ          5.5940     0.3220    -1.1790 ha         1 3FF       0.144000
     37 HAK          2.3970    -0.8790    -0.4640 ha         1 3FF       0.117000
     38 HAL         10.2920    -0.1090     0.2820 ha         1 3FF       0.133000
     39 HAM          4.3260     3.1150     1.6530 ha         1 3FF       0.115000
     40 HAN         -0.3850     1.0600    -2.7520 ha         1 3FF       0.125000
     41 HAO         -4.3180     5.2080    -5.9710 h1         1 3FF      -0.006800
     42 HAOA        -2.8500     5.8370    -6.7310 h1         1 3FF      -0.006800
     43 HAP         -0.0640     4.3720     1.5870 hc         1 3FF       0.026200
     44 HAPA         0.0120     2.5880     1.7310 hc         1 3FF       0.026200
     45 HAQ          2.1200     3.7880     2.2360 hc         1 3FF       0.026200
     46 HAQA         2.1630     4.3090     0.5550 hc         1 3FF       0.026200
     47 HAR         -1.5590     4.9370    -4.6740 h1         1 3FF       0.010200
     48 HARA        -3.1150     4.3670    -4.0560 h1         1 3FF       0.010200
     49 HNAS         6.3160     1.5410     2.1720 hn         1 3FF       0.296800
     50 HBE         -3.3310     2.9070    -6.0800 h1         1 3FF       0.016700
     51 FAD          9.8130    -0.9250    -2.1500 f          1 3FF      -0.125900
     52 OAB         -4.0220     4.6370    -7.9290 oh         1 3FF      -0.586800
@<TRIPOS>BOND
     1     1    19 2   
     2     2    29 1   
     3     2    31 1   
     4     3    22 1   
     5     4     8 ar  
     6     4    20 ar  
     7     4    32 1   
     8     5     9 ar  
     9     5    21 ar  
    10     5    33 1   
    11     6     7 ar  
    12     6    23 ar  
    13     6    34 1   
    14     7    24 ar  
    15     7    35 1   
    16     8    26 ar  
    17     8    36 1   
    18     9    27 ar  
    19     9    37 1   
    20    10    20 ar  
    21    10    22 ar  
    22    10    38 1   
    23    11    21 ar  
    24    11    25 ar  
    25    11    39 1   
    26    12    23 ar  
    27    12    28 ar  
    28    12    40 1   
    29    13    29 1   
    30    13    41 1   
    31    13    42 1   
    32    13    52 1   
    33    14    15 1   
    34    14    24 1   
    35    14    43 1   
    36    14    44 1   
    37    15    25 1   
    38    15    45 1   
    39    15    46 1   
    40    16    18 1   
    41    16    29 1   
    42    16    47 1   
    43    16    48 1   
    44    17    21 1   
    45    17    26 1   
    46    17    49 1   
    47    18    23 1   
    48    19    27 1   
    49    19    28 1   
    50    20    51 1   
    51    22    26 ar  
    52    24    28 ar  
    53    25    27 ar  
    54    29    50 1   
    55    30    52 1   
@<TRIPOS>SUBSTRUCTURE
     1 3FF         1 TEMP              0 ****  ****    0 ROOT
