@<TRIPOS>MOLECULE
molecule
   52    55     1     0     0
SMALL
bcc


@<TRIPOS>ATOM
      1 OAA          0.0000     0.0000     0.0000 o          1 3FF      -0.512100
      2 OAC         -1.5600     3.5600    -6.9080 oh         1 3FF      -0.589800
      3 FAE          8.6780     0.8980     2.0710 f          1 3FF      -0.139900
      4 CAF          7.5720    -0.2940    -1.7170 ca         1 3FF      -0.139000
      5 CAG          4.1430     0.0000     0.3470 ca         1 3FF      -0.183000
      6 CAH         -1.3060     4.2620    -2.1310 ca         1 3FF      -0.207000
      7 CAI         -0.8340     4.3900    -0.8370 ca         1 3FF      -0.089000
      8 CAJ          6.6240     0.2280    -0.8570 ca         1 3FF      -0.155000
      9 CAK          2.8270     0.0000     0.0000 ca         1 3FF      -0.058000
     10 CAL          9.2610    -0.0140    -0.0350 ca         1 3FF      -0.167000
     11 CAM          3.8890     2.2390     1.1880 ca         1 3FF      -0.189000
     12 CAN         -0.5140     1.9950    -2.2200 ca         1 3FF      -0.115000
     13 CAO         -3.5010     4.9750    -6.6420 c3         1 3FF       0.130400
     14 CAP          0.3310     3.4550     1.1650 c3         1 3FF      -0.035100
     15 CAQ          1.8330     3.5240     1.2250 c3         1 3FF      -0.034100
     16 CAR         -2.2540     4.1060    -4.6590 c3         1 3FF       0.127400
     17 NAS          6.0340     1.1580     1.2920 nu         1 3FF      -0.677000
     18 OAT         -1.6120     2.9580    -4.0990 os         1 3FF      -0.321900
     19 CAU          0.6200     1.0250    -0.2120 c          1 3FF       0.594300
     20 CAV          8.8890    -0.4150    -1.3070 ca         1 3FF       0.112900
     21 CAW          4.6890     1.1350     0.9430 ca         1 3FF       0.186600
     22 CAX          8.3160     0.5070     0.8300 ca         1 3FF       0.089900
     23 CAY         -1.1480     3.0710    -2.8270 ca         1 3FF       0.141100
     24 CAZ         -0.1980     3.3200    -0.2290 ca         1 3FF      -0.096300
     25 CBA          2.5470     2.2520     0.8490 ca         1 3FF      -0.003300
     26 CBB          6.9920     0.6300     0.4190 ca         1 3FF       0.141600
     27 CBC          2.0150     1.1260     0.2390 ca         1 3FF      -0.177600
     28 CBD         -0.0470     2.1380    -0.9160 ca         1 3FF      -0.109600
     29 CBE         -2.7050     3.7920    -6.0860 c3         1 3FF       0.152100
     30 HOAB        -4.6430     5.2930    -8.1990 ho         1 3FF       0.407000
     31 HOAC        -1.6200     2.7030    -7.2970 ho         1 3FF       0.415000
     32 HAF          7.2840    -0.6070    -2.7130 ha         1 3FF       0.152000
     33 HAG          4.7610    -0.8680     0.1520 ha         1 3FF       0.151000
     34 HAH         -1.8010     5.0990    -2.6070 ha         1 3FF       0.135000
     35 HAI         -0.9620     5.3230    -0.3010 ha         1 3FF       0.135000
     36 HAJ          5.5940     0.3220    -1.1790 ha         1 3FF       0.163000
     37 HAK          2.3970    -0.8790    -0.4640 ha         1 3FF       0.149000
     38 HAL         10.2920    -0.1090     0.2820 ha         1 3FF       0.161000
     39 HAM          4.3260     3.1150     1.6530 ha         1 3FF       0.137000
     40 HAN         -0.3850     1.0600    -2.7520 ha         1 3FF       0.156000
     41 HAO         -4.3180     5.2080    -5.9710 h1         1 3FF       0.030700
     42 HAOA        -2.8500     5.8370    -6.7310 h1         1 3FF       0.030700
     43 HAP         -0.0640     4.3720     1.5870 hc         1 3FF       0.057700
     44 HAPA         0.0120     2.5880     1.7310 hc         1 3FF       0.057700
     45 HAQ          2.1200     3.7880     2.2360 hc         1 3FF       0.059200
     46 HAQA         2.1630     4.3090     0.5550 hc         1 3FF       0.059200
     47 HAR         -1.5590     4.9370    -4.6740 h1         1 3FF       0.045200
     48 HARA        -3.1150     4.3670    -4.0560 h1         1 3FF       0.045200
     49 HNAS         6.3160     1.5410     2.1720 hn         1 3FF       0.460800
     50 HBE         -3.3310     2.9070    -6.0800 h1         1 3FF       0.056700
     51 FAD          9.8130    -0.9250    -2.1500 f          1 3FF      -0.136900
     52 OAB         -4.0220     4.6370    -7.9290 oh         1 3FF      -0.603800
@<TRIPOS>BOND
     1     1    19 2   
     2    52    13 1   
     3     2    29 1   
     4    51    20 1   
     5     3    22 1   
     6     4     8 ar  
     7     4    20 ar  
     8     5     9 ar  
     9     5    21 ar  
    10     6     7 ar  
    11     6    23 ar  
    12     7    24 ar  
    13     8    26 ar  
    14     9    27 ar  
    15    10    20 ar  
    16    10    22 ar  
    17    11    21 ar  
    18    11    25 ar  
    19    12    23 ar  
    20    12    28 ar  
    21    13    29 1   
    22    14    15 1   
    23    14    24 1   
    24    15    25 1   
    25    16    18 1   
    26    16    29 1   
    27    17    21 1   
    28    17    26 1   
    29    18    23 1   
    30    19    27 1   
    31    19    28 1   
    32    22    26 ar  
    33    24    28 ar  
    34    25    27 ar  
    35    52    30 1   
    36     2    31 1   
    37     4    32 1   
    38     5    33 1   
    39     6    34 1   
    40     7    35 1   
    41     8    36 1   
    42     9    37 1   
    43    10    38 1   
    44    11    39 1   
    45    12    40 1   
    46    13    41 1   
    47    13    42 1   
    48    14    43 1   
    49    14    44 1   
    50    15    45 1   
    51    15    46 1   
    52    16    47 1   
    53    16    48 1   
    54    17    49 1   
    55    29    50 1   
@<TRIPOS>SUBSTRUCTURE
     1 3FF         1 TEMP              0 ****  ****    0 ROOT
