@<TRIPOS>MOLECULE
molecule
   16    16     1     0     0
SMALL
bcc


@<TRIPOS>ATOM
      1 S1           0.0000     0.0000     0.0000 s          1 3FH      -0.542400
      2 C1           1.7120     0.0000     0.0000 cs         1 3FH       0.422600
      3 C2           2.4130     0.0000     1.2150 cc         1 3FH      -0.240400
      4 C6           1.6680    -0.0010     2.5260 c3         1 3FH       0.697100
      5 F1           0.8640     1.1420     2.6040 f          1 3FH      -0.209633
      6 F2           0.8640    -1.1430     2.6030 f          1 3FH      -0.209633
      7 F3           2.5830    -0.0000     3.5830 f          1 3FH      -0.209633
      8 C3           3.7780    -0.0000     1.2000 cd         1 3FH       0.000000
      9 C4           4.4490    -0.0010    -0.0320 cd         1 3FH      -0.225000
     10 C5           3.7430    -0.0010    -1.1860 cc         1 3FH       0.016600
     11 N1           2.3850    -0.0060    -1.1660 n          1 3FH      -0.103500
     12 O1           1.6670    -0.0060    -2.3880 oh         1 3FH      -0.332100
     13 H1           4.3360    -0.0000     2.1290 ha         1 3FH       0.167000
     14 H2           5.5320     0.0010    -0.0590 ha         1 3FH       0.167000
     15 H3           4.2660    -0.0040    -2.1350 h4         1 3FH       0.177000
     16 H4           1.5610    -0.8930    -2.6910 ho         1 3FH       0.424000
@<TRIPOS>BOND
     1    10     9 2   
     2    10    11 1   
     3     9     8 1   
     4    12    11 1   
     5    11     2 1   
     6     8     3 2   
     7     2     3 1   
     8     2     1 2   
     9     3     4 1   
    10     6     4 1   
    11     5     4 1   
    12     4     7 1   
    13     8    13 1   
    14     9    14 1   
    15    10    15 1   
    16    12    16 1   
@<TRIPOS>SUBSTRUCTURE
     1 3FH         1 TEMP              0 ****  ****    0 ROOT
