@<TRIPOS>MOLECULE
3FI
   42    44     1     0     0
SMALL
bcc


@<TRIPOS>ATOM
      1 C1           0.0000     0.0000     0.0000 c2         1 3FI      -0.167000
      2 C2           1.3810     0.0000     0.0000 c2         1 3FI      -0.104000
      3 C3           2.0820     0.0000     1.2070 c3         1 3FI      -0.193000
      4 C4           1.3860    -0.0000     2.4150 c2         1 3FI       0.035000
      5 C5          -0.0080     0.0000     2.4070 c2         1 3FI      -0.118000
      6 C6          -0.6960    -0.0000     1.1910 c2         1 3FI      -0.003000
      7 O40         -2.1020    -0.0010     3.6720 o          1 3FI      -0.609000
      8 C38         -0.7550    -0.0010     3.6820 c2         1 3FI       0.421000
      9 O39         -0.1550    -0.0000     4.7370 o          1 3FI      -0.609000
     10 C9           3.5590    -0.0010     1.2060 c2         1 3FI      -0.392000
     11 N18          4.2040    -0.0010     0.0840 n2         1 3FI       0.002000
     12 O1           5.6200    -0.0010     0.0830 os         1 3FI      -0.199000
     13 C22          6.2000    -0.0010    -1.2230 c3         1 3FI       0.067000
     14 C23          7.7250    -0.0020    -1.1040 c3         1 3FI      -0.116000
     15 C8           8.3460    -0.0020    -2.5030 c3         1 3FI      -0.087000
     16 N31          9.8100    -0.0020    -2.3890 n7         1 3FI      -0.070000
     17 C30         10.4420    -0.0020    -3.7160 c3         1 3FI      -0.051000
     18 C16         11.9400    -0.0020    -3.5590 c2         1 3FI      -0.082000
     19 N11         12.5720     1.0700    -2.9900 ns         1 3FI       0.195000
     20 C15         12.6650    -1.0630    -3.9740 c2         1 3FI      -0.292000
     21 C14         14.0720    -1.0410    -3.8150 c2         1 3FI       0.255000
     22 O33         14.7470    -1.9860    -4.1820 o          1 3FI      -0.391000
     23 N13         14.6570     0.0360    -3.2550 ns         1 3FI       0.093000
     24 C12         13.9100     1.0790    -2.8450 c2         1 3FI       0.162000
     25 O34         14.4510     2.0420    -2.3360 o          1 3FI      -0.428000
     26 H1          -0.5390    -0.0000    -0.9400 ha         1 3FI       0.093000
     27 H2           1.9210     0.0000    -0.9390 ha         1 3FI       0.105000
     28 H4           1.9260    -0.0000     3.3540 ha         1 3FI       0.142000
     29 H6          -1.7800    -0.0000     1.1840 ha         1 3FI       0.131000
     30 H9           2.9470    -0.8760     1.0240 DU         1 3FI       0.343000
     31 H22          5.8800     0.8840    -1.7600 h1         1 3FI       0.032000
     32 H22A         5.8790    -0.8850    -1.7610 h1         1 3FI       0.032000
     33 H23          8.0460     0.8830    -0.5670 hc         1 3FI       0.068000
     34 H23A         8.0450    -0.8860    -0.5670 hc         1 3FI       0.068000
     35 H8           8.0250     0.8830    -3.0400 h1         1 3FI       0.048000
     36 H8A          8.0250    -0.8860    -3.0400 h1         1 3FI       0.048000
     37 HN31        10.1040    -0.8110    -1.8790 hn         1 3FI       0.058000
     38 H30         10.1360     0.8820    -4.2620 h1         1 3FI       0.064000
     39 H30A        10.1360    -0.8870    -4.2620 h1         1 3FI       0.064000
     40 HN11        12.0340     1.8540    -2.6790 hn         1 3FI       0.115000
     41 H15         12.1670    -1.9820    -4.2600 ha         1 3FI       0.151000
     42 HN13        15.6510     0.0600    -3.1390 hn         1 3FI       0.118000
@<TRIPOS>BOND
     1     1     2 1   
     2     1     6 1   
     3     1    26 1   
     4     2     3 1   
     5     2    27 1   
     6     3     4 1   
     7     3    10 1   
     8     3    30 1   
     9     4     5 1   
    10     4    28 1   
    11     5     6 1   
    12     5     8 1   
    13     6    29 1   
    14     7     8 1   
    15     8     9 1   
    16    10    11 1   
    17    10    30 1   
    18    11    12 1   
    19    12    13 1   
    20    13    14 1   
    21    13    31 1   
    22    13    32 1   
    23    14    15 1   
    24    14    33 1   
    25    14    34 1   
    26    15    16 1   
    27    15    35 1   
    28    15    36 1   
    29    16    17 1   
    30    16    37 1   
    31    17    18 1   
    32    17    38 1   
    33    17    39 1   
    34    18    19 1   
    35    18    20 1   
    36    19    24 1   
    37    19    40 1   
    38    20    21 1   
    39    20    41 1   
    40    21    22 1   
    41    21    23 1   
    42    23    24 1   
    43    23    42 1   
    44    24    25 1   
@<TRIPOS>SUBSTRUCTURE
     1 3FI         1 TEMP              0 ****  ****    0 ROOT
