@<TRIPOS>MOLECULE
molecule
   42    43     1     0     0
SMALL
bcc


@<TRIPOS>ATOM
      1 C1           0.0000     0.0000     0.0000 ca         1 3FI      -0.176000
      2 C2           1.3810     0.0000     0.0000 ca         1 3FI      -0.110000
      3 C3           2.0820     0.0000     1.2070 ca         1 3FI      -0.186900
      4 C4           1.3860    -0.0000     2.4150 ca         1 3FI      -0.073000
      5 C5          -0.0080     0.0000     2.4070 ca         1 3FI      -0.113600
      6 C6          -0.6960    -0.0000     1.1910 ca         1 3FI      -0.070000
      7 O40         -2.1020    -0.0010     3.6720 o          1 3FI      -0.834300
      8 C38         -0.7550    -0.0010     3.6820 c          1 3FI       0.883200
      9 O39         -0.1550    -0.0000     4.7370 o          1 3FI      -0.834300
     10 C9           3.5590    -0.0010     1.2060 ce         1 3FI       0.471800
     11 N18          4.2040    -0.0010     0.0840 n2         1 3FI      -0.482200
     12 O1           5.6200    -0.0010     0.0830 os         1 3FI      -0.226300
     13 C22          6.2000    -0.0010    -1.2230 c3         1 3FI       0.161400
     14 C23          7.7250    -0.0020    -1.1040 c3         1 3FI      -0.087400
     15 C8           8.3460    -0.0020    -2.5030 c3         1 3FI       0.158800
     16 N31          9.8100    -0.0020    -2.3890 n7         1 3FI      -0.822200
     17 C30         10.4420    -0.0020    -3.7160 c3         1 3FI       0.185000
     18 C16         11.9400    -0.0020    -3.5590 cd         1 3FI       0.088400
     19 N11         12.5720     1.0700    -2.9900 ns         1 3FI      -0.439100
     20 C15         12.6650    -1.0630    -3.9740 cc         1 3FI      -0.335200
     21 C14         14.0720    -1.0410    -3.8150 c          1 3FI       0.706700
     22 O33         14.7470    -1.9860    -4.1820 o          1 3FI      -0.626500
     23 N13         14.6570     0.0360    -3.2550 ns         1 3FI      -0.563500
     24 C12         13.9100     1.0790    -2.8450 c          1 3FI       0.807500
     25 O34         14.4510     2.0420    -2.3360 o          1 3FI      -0.653500
     26 H1          -0.5390    -0.0000    -0.9400 ha         1 3FI       0.110000
     27 H2           1.9210     0.0000    -0.9390 ha         1 3FI       0.123000
     28 H4           1.9260    -0.0000     3.3540 ha         1 3FI       0.149000
     29 H6          -1.7800    -0.0000     1.1840 ha         1 3FI       0.157000
     30 H9           4.1020    -0.0010     2.1430 h4         1 3FI      -0.005200
     31 H22          5.8790    -0.8850    -1.7610 h1         1 3FI       0.029700
     32 H22A         5.8800     0.8840    -1.7600 h1         1 3FI       0.029700
     33 H23          8.0450    -0.8860    -0.5670 hc         1 3FI       0.059200
     34 H23A         8.0460     0.8830    -0.5670 hc         1 3FI       0.059200
     35 H8           8.0250    -0.8860    -3.0400 h1         1 3FI       0.036700
     36 H8A          8.0250     0.8830    -3.0400 h1         1 3FI       0.036700
     37 HN31        10.1040    -0.8110    -1.8790 hn         1 3FI       0.365800
     38 H30         10.1360    -0.8870    -4.2620 h1         1 3FI       0.056700
     39 H30A        10.1360     0.8820    -4.2620 h1         1 3FI       0.056700
     40 HN11        12.0340     1.8540    -2.6790 hn         1 3FI       0.369500
     41 H15         12.2000    -1.8350    -4.5750 ha         1 3FI       0.176000
     42 HN13        15.6510     0.0600    -3.1390 hn         1 3FI       0.361500
@<TRIPOS>BOND
     1     1     6 ar
     2     1     2 ar
     3     1    26 1
     4     2     3 ar
     5     2    27 1
     6     3     4 ar
     7     3    10 1
     8     5     4 ar
     9     4    28 1
    10     6     5 ar
    11     5     8 1
    12     6    29 1
    13     8     7 1
    14     9     8 1
    15    10    11 2
    16    10    30 1
    17    11    12 1
    18    13    12 1
    19    13    14 1
    20    13    31 1
    21    13    32 1
    22    14    15 1
    23    14    33 1
    24    14    34 1
    25    15    16 1
    26    15    35 1
    27    15    36 1
    28    16    17 1
    29    16    37 1
    30    17    18 1
    31    17    38 1
    32    17    39 1
    33    20    18 2
    34    18    19 1
    35    19    24 1
    36    19    40 1
    37    20    21 1
    38    20    41 1
    39    22    21 2
    40    21    23 1
    41    23    24 1
    42    23    42 1
    43    24    25 2
@<TRIPOS>SUBSTRUCTURE
     1 3FI         1 TEMP              0 ****  ****    0 ROOT
