@<TRIPOS>MOLECULE
molecule
   25    25     1     0     0
SMALL
bcc


@<TRIPOS>ATOM
      1 C11          0.0000     0.0000     0.0000 ca         1 3FK       0.025400
      2 C12          1.3830     0.0000     0.0000 ca         1 3FK      -0.146000
      3 C13          2.0740     0.0000     1.1970 ca         1 3FK       0.025400
      4 C14          1.3830    -0.0010     2.3960 ca         1 3FK      -0.102000
      5 C7          -1.3520    -1.3650     3.9350 c          1 3FK       0.895600
      6 C8          -0.7530    -0.0020     3.7010 c3         1 3FK       0.102800
      7 C9           0.0000    -0.0010     2.3960 ca         1 3FK      -0.005300
      8 C10         -0.6910     0.0040     1.1990 ca         1 3FK      -0.102000
      9 Cl1         -0.8690     0.0010    -1.5020 cl         1 3FK      -0.141400
     10 Cl2          3.8110    -0.0010     1.1980 cl         1 3FK      -0.141400
     11 N21         -1.8250     1.0010     3.6480 n3         1 3FK      -0.703600
     12 H2           1.9240    -0.0010    -0.9380 ha         1 3FK       0.135000
     13 H3           1.9240    -0.0010     3.3340 ha         1 3FK       0.164500
     14 H12         -3.1060     0.1260     5.0570 h1         1 3FK       0.023533
     15 H13         -1.8640     1.1880     5.7350 h1         1 3FK       0.023533
     16 H14         -3.2590     1.8810     4.8970 h1         1 3FK       0.023533
     17 H15         -1.0380     2.3410     2.2410 h1         1 3FK       0.023533
     18 H16         -0.4050     2.5250     3.8820 h1         1 3FK       0.023533
     19 H17         -2.0400     3.0810     3.4980 h1         1 3FK       0.023533
     20 H25         -0.0740     0.2380     4.5100 h1         1 3FK       0.031700
     21 H26         -1.7750     0.0040     1.1990 ha         1 3FK       0.164500
     22 O17         -2.4870    -1.5930     3.5930 o          1 3FK      -0.824800
     23 C22         -2.5620     1.0530     4.9170 c3         1 3FK       0.151100
     24 C23         -1.2920     2.3240     3.2940 c3         1 3FK       0.151100
     25 OXT         -0.6230    -2.3250     4.5240 o          1 3FK      -0.824800
@<TRIPOS>BOND
     1     5    22 1   
     2     5     6 1   
     3    23    11 1   
     4    11     6 1   
     5    11    24 1   
     6    10     3 1   
     7     4     3 ar  
     8     4     7 ar  
     9     6     7 1   
    10     3     2 ar  
    11     7     8 ar  
    12     2     1 ar  
    13     8     1 ar  
    14     1     9 1   
    15     2    12 1   
    16     4    13 1   
    17    23    14 1   
    18    23    15 1   
    19    23    16 1   
    20    24    17 1   
    21    24    18 1   
    22    24    19 1   
    23     6    20 1   
    24     8    21 1   
    25     5    25 1   
@<TRIPOS>SUBSTRUCTURE
     1 3FK         1 TEMP              0 ****  ****    0 ROOT
