@<TRIPOS>MOLECULE
molecule
   46    47     1     0     0
SMALL
bcc


@<TRIPOS>ATOM
      1 C8           0.0000     0.0000     0.0000 c3         1 3FL       0.155800
      2 C5           6.6270    -1.1920    -6.2850 ca         1 3FL      -0.104600
      3 C6           6.8460     0.0220    -6.9390 ca         1 3FL      -0.089000
      4 C2           6.2080     1.2010    -4.9550 ca         1 3FL      -0.130000
      5 C4           6.1960    -1.1940    -4.9570 ca         1 3FL      -0.100000
      6 O40          7.2610    -2.4620    -8.2780 o          1 3FL      -0.838800
      7 C38          6.8450    -2.4680    -6.9970 c          1 3FL       0.883200
      8 O39          6.6500    -3.5220    -6.4260 o          1 3FL      -0.838800
      9 C1           6.6340     1.2100    -6.2710 ca         1 3FL      -0.168000
     10 C3           5.9940     0.0010    -4.2990 ca         1 3FL      -0.127300
     11 C17          5.5300     0.0000    -2.8650 c3         1 3FL       0.212100
     12 N18          4.0620     0.0000    -2.8260 n7         1 3FL      -0.817200
     13 C7           3.5710     0.0010    -1.4410 c3         1 3FL       0.157800
     14 C22          2.0410     0.0010    -1.4410 c3         1 3FL      -0.083400
     15 C23          1.5300     0.0000     0.0000 c3         1 3FL      -0.083400
     16 N31         -0.4890     0.0000     1.3850 n7         1 3FL      -0.825200
     17 C30         -1.9580    -0.0010     1.4240 c3         1 3FL       0.184000
     18 C16         -2.4230    -0.0010     2.8570 cc         1 3FL       0.088400
     19 N11         -2.1540    -1.0710     3.6670 ns         1 3FL      -0.439100
     20 C15         -3.1020     1.0580     3.3510 cd         1 3FL      -0.336200
     21 C14         -3.5270     1.0330     4.7010 c          1 3FL       0.706700
     22 O33         -4.1410     1.9750     5.1680 o          1 3FL      -0.627500
     23 N13         -3.2470    -0.0420     5.4640 ns         1 3FL      -0.563500
     24 C12         -2.5640    -1.0810     4.9480 c          1 3FL       0.806500
     25 O34         -2.3150    -2.0420     5.6500 o          1 3FL      -0.654500
     26 H8          -0.3610    -0.8850    -0.5110 h1         1 3FL       0.037200
     27 H8A         -0.3610     0.8850    -0.5110 h1         1 3FL       0.037200
     28 H6           7.1800     0.0310    -7.9700 ha         1 3FL       0.153000
     29 H2           6.0460     2.1370    -4.4340 ha         1 3FL       0.105000
     30 H4           6.0260    -2.1320    -4.4430 ha         1 3FL       0.141000
     31 H1           6.8010     2.1530    -6.7780 ha         1 3FL       0.105000
     32 H17          5.9040    -0.8850    -2.3650 h1         1 3FL       0.026700
     33 H17A         5.9050     0.8840    -2.3630 h1         1 3FL       0.026700
     34 HN18         3.7150    -0.8080    -3.3030 hn         1 3FL       0.362800
     35 H7           3.9320     0.8850    -0.9310 h1         1 3FL       0.026200
     36 H7A          3.9320    -0.8840    -0.9310 h1         1 3FL       0.026200
     37 H22          1.6800     0.8850    -1.9520 hc         1 3FL       0.049700
     38 H22A         1.6800    -0.8840    -1.9520 hc         1 3FL       0.049700
     39 H23          1.8910    -0.8850     0.5100 hc         1 3FL       0.047700
     40 H23A         1.8910     0.8840     0.5110 hc         1 3FL       0.047700
     41 HN31        -0.1430     0.8090     1.8610 hn         1 3FL       0.363800
     42 H30         -2.3320    -0.8850     0.9230 h1         1 3FL       0.057700
     43 H30A        -2.3330     0.8840     0.9230 h1         1 3FL       0.057700
     44 HN13        -3.5450    -0.0670     6.4190 hn         1 3FL       0.361500
     45 H21         -1.6480    -1.8530     3.3020 hn         1 3FL       0.369500
     46 H15         -3.4660     1.8280     2.6820 ha         1 3FL       0.176000
@<TRIPOS>BOND
     1     1    15 1   
     2     1    16 1   
     3     1    26 1   
     4     1    27 1   
     5     2     5 ar  
     6     2     7 1   
     7     3     2 ar  
     8     3    28 1   
     9     4    10 ar  
    10     4    29 1   
    11     5    30 1   
    12     7     6 1   
    13     8     7 1   
    14     9     3 ar  
    15     9     4 ar  
    16     9    31 1   
    17    10     5 ar  
    18    10    11 1   
    19    11    12 1   
    20    11    32 1   
    21    11    33 1   
    22    12    13 1   
    23    12    34 1   
    24    13    14 1   
    25    13    35 1   
    26    13    36 1   
    27    14    15 1   
    28    14    37 1   
    29    14    38 1   
    30    15    39 1   
    31    15    40 1   
    32    16    41 1   
    33    17    16 1   
    34    17    42 1   
    35    17    43 1   
    36    18    17 1   
    37    18    20 2   
    38    19    18 1   
    39    21    20 1   
    40    21    22 2   
    41    23    21 1   
    42    23    44 1   
    43    24    19 1   
    44    24    23 1   
    45    25    24 2   
    46    19    45 1   
    47    20    46 1   
@<TRIPOS>SUBSTRUCTURE
     1 3FL         1 TEMP              0 ****  ****    0 ROOT
