@<TRIPOS>MOLECULE
molecule
   46    49     1     0     0
SMALL
bcc


@<TRIPOS>ATOM
      1 C1           0.0000     0.0000     0.0000 c3         1 3FN      -0.134400
      2 C2           1.5320     0.0000     0.0000 c3         1 3FN       0.140900
      3 C4           1.6060     1.1430     2.1070 c3         1 3FN       0.140900
      4 C5           0.0790     1.1890     2.1910 c3         1 3FN      -0.134400
      5 C24         -9.1620     8.2680     4.2460 ca         1 3FN      -0.180000
      6 O3           2.0060     0.0000     1.3480 os         1 3FN      -0.420600
      7 C15         -6.7880     4.5160     1.4690 c          1 3FN       0.685700
      8 C25         -8.4700     8.1190     3.0580 ca         1 3FN       0.142900
      9 C8          -2.6740     2.3660     1.0080 ca         1 3FN       0.985900
     10 C6          -0.5020     1.2220     0.7740 c3         1 3FN       0.247500
     11 C10         -4.0320     4.6510     1.3270 ca         1 3FN      -0.437400
     12 C17         -4.8050     5.8770     1.5010 cc         1 3FN      -0.013200
     13 C23         -8.9850     7.3530     5.2710 ca         1 3FN       0.126900
     14 C22         -8.1150     6.2890     5.1080 ca         1 3FN      -0.146000
     15 C21         -7.4210     6.1370     3.9220 ca         1 3FN      -0.147000
     16 C9          -4.7100     3.4160     1.2250 ca         1 3FN       0.641200
     17 C11         -2.6350     4.6610     1.2490 ca         1 3FN       0.557200
     18 C16         -6.1610     5.7810     1.5660 cd         1 3FN      -0.039100
     19 C20         -7.5960     7.0510     2.8940 ca         1 3FN       0.091100
     20 F1          -9.6620     7.5010     6.4310 f          1 3FN      -0.135900
     21 O26         -6.9140     6.9020     1.7270 os         1 3FN      -0.203200
     22 N7          -2.0040     3.5080     1.1020 nb         1 3FN      -0.818000
     23 O19         -8.0030     4.4500     1.5300 o          1 3FN      -0.614500
     24 N14         -6.0790     3.3860     1.3050 n          1 3FN      -0.409300
     25 N12         -3.9970     2.3080     1.0680 nb         1 3FN      -0.846000
     26 N13         -1.9650     1.1920     0.8440 nu         1 3FN      -0.878900
     27 H1          -0.3610     0.0460    -1.0200 hc         1 3FN       0.059200
     28 H1A         -0.3610    -0.9030     0.4770 hc         1 3FN       0.059200
     29 H2           1.8920    -0.8860    -0.5080 h1         1 3FN       0.051450
     30 H2A          1.8920     0.8860    -0.5090 h1         1 3FN       0.051450
     31 H4           1.9670     2.0420     1.6220 h1         1 3FN       0.051450
     32 H4A          2.0200     1.0750     3.1060 h1         1 3FN       0.051450
     33 H5          -0.2800     0.3080     2.7080 hc         1 3FN       0.059200
     34 H5A         -0.2260     2.0800     2.7270 hc         1 3FN       0.059200
     35 H24         -9.8430     9.1000     4.3750 ha         1 3FN       0.164000
     36 H6          -0.1780     2.1260     0.2720 h1         1 3FN       0.081700
     37 H17         -4.3110     6.8390     1.5740 ha         1 3FN       0.157000
     38 H22         -7.9780     5.5750     5.9100 ha         1 3FN       0.150000
     39 H21         -6.7400     5.3030     3.7960 ha         1 3FN       0.148000
     40 H11         -2.0820     5.5890     1.3250 h4         1 3FN       0.038100
     41 HN13        -2.4520     0.3220     0.7540 hn         1 3FN       0.461800
     42 C18         -6.7780     2.1030     1.2090 c3         1 3FN       0.085300
     43 F2          -8.6420     9.0110     2.0580 f          1 3FN      -0.123900
     44 H18         -6.5130     1.6150     0.2790 h1         1 3FN       0.064033
     45 H18A        -6.4920     1.4720     2.0420 h1         1 3FN       0.064033
     46 H18B        -7.8480     2.2720     1.2360 h1         1 3FN       0.064033
@<TRIPOS>BOND
     1     1     2 1   
     2     1    10 1   
     3     2     6 1   
     4     3     4 1   
     5     3     6 1   
     6     4    10 1   
     7     5     8 ar  
     8     5    13 ar  
     9     7    18 1   
    10     7    23 2   
    11     7    24 1   
    12     8    19 ar  
    13     8    43 1   
    14     9    22 ar  
    15     9    25 ar  
    16     9    26 1   
    17    10    26 1   
    18    11    12 1   
    19    11    16 ar  
    20    11    17 ar  
    21    12    18 2   
    22    13    14 ar  
    23    13    20 1   
    24    14    15 ar  
    25    15    19 ar  
    26    16    24 1   
    27    16    25 ar  
    28    17    22 ar  
    29    18    21 1   
    30    19    21 1   
    31    42    24 1   
    32     1    27 1   
    33     1    28 1   
    34     2    29 1   
    35     2    30 1   
    36     3    31 1   
    37     3    32 1   
    38     4    33 1   
    39     4    34 1   
    40     5    35 1   
    41    10    36 1   
    42    12    37 1   
    43    14    38 1   
    44    15    39 1   
    45    17    40 1   
    46    42    44 1   
    47    42    45 1   
    48    42    46 1   
    49    26    41 1   
@<TRIPOS>SUBSTRUCTURE
     1 3FN         1 TEMP              0 ****  ****    0 ROOT
