@<TRIPOS>MOLECULE
molecule
   56    58     1     0     0
SMALL
bcc


@<TRIPOS>ATOM
      1 C1           0.0000     0.0000     0.0000 ca         1 3FP       0.748200
      2 N1           1.3310    -0.0050     2.3470 nb         1 3FP      -0.828000
      3 C2           1.3920     0.0000     0.0000 ca         1 3FP      -0.501600
      4 C7          -4.8540     0.3630    -1.1710 ca         1 3FP      -0.088000
      5 C6          -4.2190    -0.2040    -2.2600 ca         1 3FP      -0.151000
      6 C5          -2.8420    -0.3200    -2.2750 ca         1 3FP       0.109900
      7 C4          -2.0970     0.1210    -1.1870 ca         1 3FP       0.124600
      8 C3           2.0510     0.0000     1.2260 ca         1 3FP       0.754200
      9 C11          5.3050     0.5510     2.7080 ca         1 3FP      -0.105500
     10 C10          4.0880    -0.0910     2.5150 ca         1 3FP       0.112600
     11 C9          -2.7380     0.6880    -0.0960 ca         1 3FP      -0.075000
     12 C8          -4.1150     0.8080    -0.0900 ca         1 3FP      -0.177300
     13 C12          5.9480     0.4600     3.9270 ca         1 3FP      -0.175000
     14 C16          5.2180    -1.2170     6.9820 c3         1 3FP       0.098400
     15 C14          4.1670    -0.9170     4.7650 ca         1 3FP      -0.175000
     16 C13          5.3790    -0.2730     4.9590 ca         1 3FP       0.108100
     17 C15          3.5200    -0.8230     3.5490 ca         1 3FP      -0.105500
     18 C            0.0150    -0.0000     2.3040 ca         1 3FP       0.754900
     19 N           -0.6460     0.0000     1.1650 nb         1 3FP      -0.841000
     20 N2          -0.7030    -0.0020    -1.1950 nu         1 3FP      -0.756300
     21 N3           3.4360     0.0010     1.2800 nu         1 3FP      -0.759300
     22 O            6.0130    -0.3620     6.1580 os         1 3FP      -0.295900
     23 C21         -4.8110     1.4250     1.0950 c3         1 3FP       0.678200
     24 F2          -6.1960     1.3320     0.9210 f          1 3FP      -0.222967
     25 F3          -4.4410     0.7450     2.2600 f          1 3FP      -0.222967
     26 F4          -4.4440     2.7710     1.2030 f          1 3FP      -0.222967
     27 C17          5.9360    -1.4540     8.3120 c3         1 3FP       0.150100
     28 C18          5.0840    -2.3680     9.1950 c3         1 3FP       0.124800
     29 C19          5.5860    -1.2570    11.2120 c3         1 3FP       0.120100
     30 C20          4.9480    -3.5250    11.2440 c3         1 3FP       0.120100
     31 N4           5.7370    -2.5330    10.5010 n3         1 3FP      -0.659600
     32 O1           7.2000    -2.0710     8.0680 oh         1 3FP      -0.582800
     33 H2           1.9480     0.0020    -0.9300 ha         1 3FP       0.143000
     34 H7          -5.9330     0.4560    -1.1620 ha         1 3FP       0.155000
     35 H6          -4.8010    -0.5500    -3.1060 ha         1 3FP       0.154000
     36 H11          5.7490     1.1230     1.9030 ha         1 3FP       0.147500
     37 H9          -2.1610     1.0350     0.7520 ha         1 3FP       0.199000
     38 H12          6.8960     0.9620     4.0780 ha         1 3FP       0.144000
     39 H161         5.0670    -2.1640     6.4790 h1         1 3FP       0.050200
     40 H162         4.2590    -0.7490     7.1670 h1         1 3FP       0.050200
     41 H14          3.7220    -1.4890     5.5700 ha         1 3FP       0.144000
     42 H15          2.5720    -1.3250     3.3990 ha         1 3FP       0.147500
     43 H           -0.5410    -0.0020     3.2330 h5         1 3FP       0.063100
     44 HA          -0.2110    -0.0670    -2.0640 hn         1 3FP       0.468800
     45 H3           3.9690     0.0280     0.4330 hn         1 3FP       0.457800
     46 H17          6.0880    -0.5070     8.8140 h1         1 3FP       0.043700
     47 H181         4.1050    -1.9250     9.3340 h1         1 3FP       0.046200
     48 H182         4.9790    -3.3350     8.7190 h1         1 3FP       0.046200
     49 H191         4.5570    -0.9260    11.1450 h1         1 3FP       0.035700
     50 H192         5.8560    -1.3900    12.2530 h1         1 3FP       0.035700
     51 H193         6.2350    -0.5150    10.7630 h1         1 3FP       0.035700
     52 H201         4.9850    -4.4770    10.7280 h1         1 3FP       0.035700
     53 H202         3.9190    -3.1920    11.3120 h1         1 3FP       0.035700
     54 H203         5.3570    -3.6390    12.2410 h1         1 3FP       0.035700
     55 H1           7.8910    -1.4810     8.3210 ho         1 3FP       0.409000
     56 F1          -2.2220    -0.8750    -3.3410 f          1 3FP      -0.140900
@<TRIPOS>BOND
     1     1     3 ar
     2     1    19 ar
     3     1    20 1
     4     2     8 ar
     5     2    18 ar
     6     3     8 ar
     7     3    33 1
     8     4     5 ar
     9     4    12 ar
    10     4    34 1
    11     5     6 ar
    12     5    35 1
    13     6     7 ar
    14     6    56 1
    15     7    11 ar
    16     7    20 1
    17     8    21 1
    18     9    10 ar
    19     9    13 ar
    20     9    36 1
    21    10    17 ar
    22    10    21 1
    23    11    12 ar
    24    11    37 1
    25    12    23 1
    26    13    16 ar
    27    13    38 1
    28    14    22 1
    29    14    27 1
    30    14    39 1
    31    14    40 1
    32    15    16 ar
    33    15    17 ar
    34    15    41 1
    35    16    22 1
    36    17    42 1
    37    18    19 ar
    38    18    43 1
    39    20    44 1
    40    21    45 1
    41    23    24 1
    42    23    25 1
    43    23    26 1
    44    27    28 1
    45    27    32 1
    46    27    46 1
    47    28    31 1
    48    28    47 1
    49    28    48 1
    50    29    31 1
    51    29    49 1
    52    29    50 1
    53    29    51 1
    54    30    31 1
    55    30    52 1
    56    30    53 1
    57    30    54 1
    58    32    55 1
@<TRIPOS>SUBSTRUCTURE
     1 3FP         1 TEMP              0 ****  ****    0 ROOT
