@<TRIPOS>MOLECULE
molecule
   59    61     1     0     0
SMALL
bcc


@<TRIPOS>ATOM
      1 C1           0.0000     0.0000     0.0000 c3         1 3FQ       0.726400
      2 N1           1.5010    -0.0140     2.3510 nu         1 3FQ      -0.780000
      3 C2           1.5020     0.0000     0.0000 c2         1 3FQ      -0.436200
      4 C7          -4.5710    -1.4960    -1.5760 ca         1 3FQ      -0.119000
      5 C6          -3.6680    -2.2150    -2.3360 ca         1 3FQ      -0.138000
      6 C5          -2.3100    -2.0330    -2.1540 ca         1 3FQ       0.069900
      7 C4          -1.8530    -1.1350    -1.1970 ca         1 3FQ       0.176600
      8 C3           2.1870     0.0000     1.1380 c2         1 3FQ       0.403000
      9 C11          3.8320    -0.9620     3.3170 ca         1 3FQ      -0.139000
     10 C10          4.2940    -0.1190     2.3150 ca         1 3FQ       0.111600
     11 C9          -2.7630    -0.4140    -0.4350 ca         1 3FQ      -0.098000
     12 C8          -4.1190    -0.5970    -0.6270 ca         1 3FQ      -0.164300
     13 C12          4.5390    -1.0860     4.4960 ca         1 3FQ      -0.162000
     14 C16          7.5500     0.3610     5.7310 c3         1 3FQ       0.095400
     15 C14          6.1720     0.4790     3.6830 ca         1 3FQ      -0.162000
     16 C13          5.7120    -0.3680     4.6800 ca         1 3FQ       0.107100
     17 C15          5.4680     0.5990     2.5000 ca         1 3FQ      -0.139000
     18 C            0.1800    -0.3700     2.3760 c2         1 3FQ       0.670100
     19 N           -0.5310    -0.3770     1.3040 n2         1 3FQ      -0.671900
     20 N2          -0.4790    -0.9520    -1.0050 nu         1 3FQ      -0.825600
     21 N3           3.5780     0.0080     1.1190 nu         1 3FQ      -0.683400
     22 O            6.4080    -0.4900     5.8420 os         1 3FQ      -0.292900
     23 C21         -5.1070     0.1850     0.2000 c3         1 3FQ       0.676200
     24 F2          -5.4130     1.3850    -0.4510 f          1 3FQ      -0.225967
     25 F3          -6.2750    -0.5670     0.3650 f          1 3FQ      -0.225967
     26 F4          -4.5510     0.4630     1.4530 f          1 3FQ      -0.225967
     27 C17          8.3820     0.2700     7.0120 c3         1 3FQ       0.152100
     28 C18          9.5350     1.2740     6.9440 c3         1 3FQ       0.125800
     29 C19         11.5450     1.9830     7.9480 c3         1 3FQ       0.120100
     30 C20          9.5660     1.8710     9.2240 c3         1 3FQ       0.120100
     31 N4          10.3330     1.1860     8.1750 n3         1 3FQ      -0.657600
     32 O1           8.9070    -1.0520     7.1470 oh         1 3FQ      -0.582800
     33 O1L         -0.4690     1.3080    -0.3340 oh         1 3FQ      -0.605800
     34 HN1          1.9720     0.2350     3.1980 hn         1 3FQ       0.458800
     35 H2           2.0360    -0.0000    -0.9430 ha         1 3FQ       0.142000
     36 H7          -5.6350    -1.6380    -1.7210 ha         1 3FQ       0.145000
     37 H6          -4.0260    -2.9170    -3.0800 ha         1 3FQ       0.146000
     38 H11          2.9160    -1.5230     3.1730 ha         1 3FQ       0.144500
     39 H9          -2.4100     0.2880     0.3100 ha         1 3FQ       0.189000
     40 H12          4.1800    -1.7460     5.2760 ha         1 3FQ       0.150000
     41 H161         7.2260     1.3840     5.5830 h1         1 3FQ       0.050200
     42 H162         8.1530     0.0480     4.8870 h1         1 3FQ       0.050200
     43 H14          7.0880     1.0390     3.8270 ha         1 3FQ       0.150000
     44 H15          5.8280     1.2590     1.7200 ha         1 3FQ       0.144500
     45 H           -0.2770    -0.6520     3.3170 h5         1 3FQ       0.061800
     46 HA           0.1760    -1.4650    -1.5620 hn         1 3FQ       0.450800
     47 H3           4.0650     0.1600     0.2580 hn         1 3FQ       0.467800
     48 H17          7.7550     0.4980     7.8660 h1         1 3FQ       0.044700
     49 H181         9.1360     2.2760     6.8430 h1         1 3FQ       0.045200
     50 H182        10.1610     1.0460     6.0900 h1         1 3FQ       0.045200
     51 H191        11.2680     3.0000     7.7010 h1         1 3FQ       0.036033
     52 H192        12.1510     1.9820     8.8460 h1         1 3FQ       0.036033
     53 H193        12.1110     1.5540     7.1300 h1         1 3FQ       0.036033
     54 H201        10.2340     2.1700    10.0230 h1         1 3FQ       0.036033
     55 H202         9.0880     2.7490     8.8060 h1         1 3FQ       0.036033
     56 H203         8.8110     1.2010     9.6160 h1         1 3FQ       0.036033
     57 H1           8.5200    -1.4690     7.8990 ho         1 3FQ       0.410000
     58 H1L          0.1100     1.6960    -0.9700 ho         1 3FQ       0.417000
     59 F1          -1.4270    -2.7370    -2.8980 f          1 3FQ      -0.149900
@<TRIPOS>BOND
     1     1     3 1
     2     1    19 1
     3     1    20 1
     4     1    33 1
     5     2     8 1
     6     2    18 1
     7     2    34 1
     8     3     8 2
     9     3    35 1
    10     4     5 ar
    11     4    12 ar
    12     4    36 1
    13     5     6 ar
    14     5    37 1
    15     6     7 ar
    16     6    59 1
    17     7    11 ar
    18     7    20 1
    19     8    21 1
    20     9    10 ar
    21     9    13 ar
    22     9    38 1
    23    10    17 ar
    24    10    21 1
    25    11    12 ar
    26    11    39 1
    27    12    23 1
    28    13    16 ar
    29    13    40 1
    30    14    22 1
    31    14    27 1
    32    14    41 1
    33    14    42 1
    34    15    16 ar
    35    15    17 ar
    36    15    43 1
    37    16    22 1
    38    17    44 1
    39    18    19 2
    40    18    45 1
    41    20    46 1
    42    21    47 1
    43    23    24 1
    44    23    25 1
    45    23    26 1
    46    27    28 1
    47    27    32 1
    48    27    48 1
    49    28    31 1
    50    28    49 1
    51    28    50 1
    52    29    31 1
    53    29    51 1
    54    29    52 1
    55    29    53 1
    56    30    31 1
    57    30    54 1
    58    30    55 1
    59    30    56 1
    60    32    57 1
    61    33    58 1
@<TRIPOS>SUBSTRUCTURE
     1 3FQ         1 TEMP              0 ****  ****    0 ROOT
