@<TRIPOS>MOLECULE
3FR
   61    63     1     0     0
SMALL
bcc


@<TRIPOS>ATOM
      1 C31         1.2830   -1.0400   -1.2120 c1        1 3FR     -0.210000
      2 C30         0.9220   -0.7550    0.0490 c1        1 3FR     -0.036000
      3 C28         1.0060   -0.1360    2.4250 c2        1 3FR      0.145000
      4 C24         9.3760    0.8200    9.9190 c3        1 3FR     -0.242000
      5 C23         2.6970   -0.7350    4.1290 ca        1 3FR     -0.094000
      6 C22         1.8330    0.2210    3.5840 ca        1 3FR     -0.100000
      7 C17         4.9570   -3.3850    6.5330 c2        1 3FR     -0.031000
      8 C20         2.5910    1.8450    5.2020 ca        1 3FR     -0.041000
      9 C12         6.0330   -2.4720    6.9050 c2        1 3FR     -0.163000
     10 C13         7.2720   -2.5710    7.5570 c2        1 3FR      0.049000
     11 C11         5.6000   -1.1770    6.4210 c2        1 3FR      0.036000
     12 C10         6.4290   -0.0540    6.5990 c2        1 3FR     -0.152000
     13 C9          7.6440   -0.2960    7.2670 c2        1 3FR     -0.036000
     14 C7          8.3650    1.3760    8.9300 c3        1 3FR     -0.059000
     15 C4          7.3250    3.5420    8.1680 c2        1 3FR     -0.480000
     16 C5          8.3960    2.9120    8.9730 c3        1 3FR     -0.108000
     17 C6          9.9680    0.5350    7.1200 c3        1 3FR      0.023000
     18 C3          6.3190    2.9740    7.5490 c1        1 3FR      0.149000
     19 C2         11.5510    2.6170    6.8550 c1        1 3FR     -0.044000
     20 C1         10.7900    1.7030    6.9940 c1        1 3FR     -0.298000
     21 C33        -0.3390   -0.2920    2.4290 c2        1 3FR     -0.288000
     22 C32         1.4500   -1.3260   -2.3830 c1        1 3FR     -0.032000
     23 C29         1.7700   -0.3370    1.1470 c3        1 3FR     -0.157000
     24 C21         1.7830    1.5160    4.1100 ca        1 3FR     -0.094000
     25 CL          2.5270    3.4090    5.8430 cl        1 3FR      0.046000
     26 C19         3.4390    0.8980    5.7840 ca        1 3FR     -0.123000
     27 C18         3.5010   -0.3990    5.2390 ca        1 3FR      0.082000
     28 N15         4.3520   -1.3850    5.8150 na        1 3FR     -0.097000
     29 N16         3.9880   -2.6930    5.8920 n2        1 3FR     -0.019000
     30 N14         8.0650   -1.5140    7.7440 n2        1 3FR     -0.155000
     31 H31         1.5840   -1.5780   -3.4100 ha        1 3FR      0.252000
     32 H30         2.5900   -1.0940    1.3400 hc        1 3FR      0.158000
     33 H26         5.9720   -5.2110    6.9490 hc        1 3FR      0.116000
     34 H26A        4.3640   -5.0110    7.7790 hc        1 3FR      0.116000
     35 H26B        4.4280   -5.4070    6.0080 hc        1 3FR      0.116000
     36 H24B        9.0710    1.1460   10.9460 hc        1 3FR      0.121333
     37 H23         2.7280   -1.7500    3.6970 ha        1 3FR      0.170000
     38 H13         7.6500   -3.5380    7.9490 h4        1 3FR      0.206000
     39 H10         6.1300    0.9470    6.2420 ha        1 3FR      0.189000
     40 H7          7.3310    1.0330    9.2460 hx        1 3FR      0.144000
     41 H4          8.2720    3.2160   10.0510 hc        1 3FR      0.141000
     42 H6          9.4000    3.2880    8.6300 hc        1 3FR      0.141000
     43 H3          7.3920    4.6570    8.1250 ha        1 3FR      0.232000
     44 H2         12.2320    3.4290    6.7300 ha        1 3FR      0.257000
     45 H1         10.3990   -0.1760    7.8890 hx        1 3FR      0.167000
     46 H32        -0.8190   -0.5620    1.4600 ha        1 3FR      0.214000
     47 H29         2.2900    0.6360    0.8920 hc        1 3FR      0.158000
     48 H21         1.1130    2.2730    3.6710 ha        1 3FR      0.164000
     49 H19         4.0360    1.1770    6.6690 ha        1 3FR      0.173000
     50 C34        -1.1880   -0.1510    3.5910 c2        1 3FR      0.312000
     51 C26         4.9280   -4.8300    6.8270 c3        1 3FR     -0.168000
     52 H24         9.3950   -0.2980    9.9050 hc        1 3FR      0.121333
     53 N8          8.5450    0.8660    7.5050 n4        1 3FR      0.034000
     54 O36        -0.9730    0.1730    4.7500 o         1 3FR     -0.184000
     55 N35        -2.6590   -0.4760    3.3200 n4        1 3FR     -0.150000
     56 H24A       10.4030    1.2100    9.7170 hc        1 3FR      0.121333
     57 HN35       -3.2070   -0.3680    4.1810 hn        1 3FR      0.263667
     58 HN3A       -3.0270    0.1560    2.6030 hn        1 3FR      0.263667
     59 HN8         9.9220   -0.0090    6.1260 hx        1 3FR      0.167000
     60 H353       -2.7430   -1.4390    2.9830 hn        1 3FR      0.263667
     61 H82         8.2300    1.6190    6.8720 hn        1 3FR      0.249000
@<TRIPOS>BOND
     1    1    2 1   
     2    1   22 1   
     3    2   23 1   
     4    3    6 1   
     5    3   21 1   
     6    3   23 1   
     7    4   14 1   
     8    4   36 1   
     9    4   52 1   
    10    4   56 1   
    11    5    6 1   
    12    5   27 1   
    13    5   37 1   
    14    6   24 1   
    15    7    9 1   
    16    7   29 1   
    17    7   51 1   
    18    8   24 1   
    19    8   25 1   
    20    8   26 1   
    21    9   10 1   
    22    9   11 1   
    23   10   30 1   
    24   10   38 1   
    25   11   12 1   
    26   11   28 1   
    27   12   13 1   
    28   12   39 1   
    29   13   30 1   
    30   13   53 1   
    31   14   16 1   
    32   14   40 1   
    33   14   53 1   
    34   15   16 1   
    35   15   18 1   
    36   15   43 1   
    37   16   41 1   
    38   16   42 1   
    39   17   20 1   
    40   17   45 1   
    41   17   53 1   
    42   17   59 1   
    43   19   20 1   
    44   19   44 1   
    45   21   46 1   
    46   21   50 1   
    47   22   31 1   
    48   23   32 1   
    49   23   47 1   
    50   24   48 1   
    51   26   27 1   
    52   26   49 1   
    53   27   28 1   
    54   28   29 1   
    55   33   51 1   
    56   34   51 1   
    57   35   51 1   
    58   50   54 1   
    59   50   55 1   
    60   53   61 1   
    61   55   57 1   
    62   55   58 1   
    63   55   60 1   
@<TRIPOS>SUBSTRUCTURE
     1 3FR         1 TEMP              0 ****  ****    0 ROOT
