@<TRIPOS>MOLECULE
molecule
   43    45     1     0     0
SMALL
bcc


@<TRIPOS>ATOM
      1 C1           0.0000     0.0000     0.0000 ca         1 3FT      -0.132000
      2 C2           1.4200     0.0000     0.0000 ca         1 3FT      -0.130000
      3 C3           2.1510     0.0000     1.2380 ca         1 3FT       0.043100
      4 O4           3.5420     0.0020     1.2110 os         1 3FT      -0.342900
      5 C5           4.1190     1.3430     1.0950 c3         1 3FT       0.797700
      6 F6           3.7770     2.1340     2.1580 f          1 3FT      -0.216300
      7 F7           5.4680     1.2210     1.0710 f          1 3FT      -0.216300
      8 F8           3.7450     1.9690    -0.0610 f          1 3FT      -0.216300
      9 C9           1.4310    -0.0060     2.4920 ca         1 3FT      -0.103000
     10 C10         -0.0140    -0.0080     2.4970 cp         1 3FT       0.007000
     11 C11         -0.8000     0.0150     3.6920 cp         1 3FT      -0.098000
     12 C12         -0.7100    -0.0020     1.2260 ca         1 3FT      -0.113000
     13 C13         -1.9470    -0.8500     3.8500 ca         1 3FT      -0.142000
     14 C14         -2.7590    -0.7780     5.0200 ca         1 3FT       0.093900
     15 F15         -3.8050    -1.5770     5.1160 f          1 3FT      -0.110900
     16 C16         -2.4550     0.1600     6.0620 ca         1 3FT       0.106600
     17 N17         -3.2920     0.2390     7.1810 ns         1 3FT      -0.510100
     18 C18         -1.3030     1.0130     5.9140 ca         1 3FT      -0.146000
     19 C19         -0.4890     0.9430     4.7470 ca         1 3FT      -0.110000
     20 C20         -3.0760     0.4410     8.5430 c          1 3FT       0.704300
     21 C21         -4.1470     0.5390     9.5390 ce         1 3FT      -0.212400
     22 O22         -1.9060     0.5620     8.9320 o          1 3FT      -0.655100
     23 C23         -5.4920     0.4660     9.3850 cf         1 3FT      -0.058400
     24 C24         -6.1570     0.6280    10.7070 c3         1 3FT      -0.048200
     25 C25         -5.0510     0.2740    11.6660 c3         1 3FT      -0.097400
     26 C26         -3.8050     0.7560    10.9730 c3         1 3FT      -0.024200
     27 C27         -6.3170     0.2730     8.1770 c          1 3FT       0.872800
     28 O28         -5.8530    -0.0660     7.0860 o          1 3FT      -0.808300
     29 O29         -7.6600     0.4910     8.2600 o          1 3FT      -0.808300
     30 H1          -0.5410     0.0020    -0.9380 ha         1 3FT       0.136000
     31 H2           1.9570     0.0010    -0.9410 ha         1 3FT       0.138000
     32 H9           1.9750    -0.0060     3.4280 ha         1 3FT       0.152000
     33 H12         -1.7930    -0.0030     1.2130 ha         1 3FT       0.145000
     34 H13         -2.1910    -1.5630     3.0720 ha         1 3FT       0.138000
     35 H17         -4.2600     0.1250     6.9520 hn         1 3FT       0.381500
     36 H18         -1.0580     1.7220     6.6950 ha         1 3FT       0.157000
     37 H19          0.3720     1.5930     4.6540 ha         1 3FT       0.128000
     38 H241        -6.9860    -0.0620    10.8070 hc         1 3FT       0.066200
     39 H242        -6.4770     1.6520    10.8530 hc         1 3FT       0.066200
     40 H251        -5.0090    -0.7980    11.8170 hc         1 3FT       0.034200
     41 H252        -5.1850     0.7920    12.6080 hc         1 3FT       0.034200
     42 H261        -2.9490     0.1580    11.2600 hc         1 3FT       0.048700
     43 H262        -3.6370     1.8080    11.1730 hc         1 3FT       0.048700
@<TRIPOS>BOND
     1     1     2 ar
     2     1    12 ar
     3     1    30 1
     4     2     3 ar
     5     2    31 1
     6     3     4 1
     7     3     9 ar
     8     4     5 1
     9     5     6 1
    10     5     7 1
    11     5     8 1
    12     9    10 ar
    13     9    32 1
    14    10    11 1
    15    10    12 ar
    16    11    13 ar
    17    11    19 ar
    18    12    33 1
    19    13    14 ar
    20    13    34 1
    21    14    15 1
    22    14    16 ar
    23    16    17 1
    24    16    18 ar
    25    17    20 1
    26    17    35 1
    27    18    19 ar
    28    18    36 1
    29    19    37 1
    30    20    21 1
    31    20    22 2
    32    21    23 2
    33    21    26 1
    34    23    24 1
    35    23    27 1
    36    24    25 1
    37    24    38 1
    38    24    39 1
    39    25    26 1
    40    25    40 1
    41    25    41 1
    42    26    42 1
    43    26    43 1
    44    27    28 1
    45    27    29 1
@<TRIPOS>SUBSTRUCTURE
     1 3FT         1 TEMP              0 ****  ****    0 ROOT
