@<TRIPOS>MOLECULE
molecule
   44    47     1     0     0
SMALL
bcc


@<TRIPOS>ATOM
      1 CAJ          0.0000     0.0000     0.0000 c3         1 3FV      -0.093900
      2 CAK          1.5310     0.0000     0.0000 c3         1 3FV       0.159800
      3 NAL          2.0220     0.0000     1.3840 n7         1 3FV      -0.821200
      4 CAM          1.5880     1.2070     2.1010 c3         1 3FV       0.159800
      5 CAN          0.0590     1.2430     2.1630 c3         1 3FV      -0.093900
      6 CAI         -0.5060     1.2400     0.7400 c3         1 3FV       0.070000
      7 NAD         -1.9690     1.2160     0.7940 na         1 3FV       0.152400
      8 NAE         -2.7460     1.8070    -0.0410 nc         1 3FV      -0.504800
      9 CAC         -2.7010     0.5610     1.7300 cd         1 3FV      -0.174300
     10 CAB         -4.0070     0.7740     1.4360 cc         1 3FV      -0.105900
     11 Cl          -5.3880     0.1740     2.2990 cl         1 3FV      -0.046400
     12 CAF         -4.0070     1.5920     0.2800 cc         1 3FV       0.269800
     13 CAG         -5.1940     2.1020    -0.4330 c          1 3FV       0.604600
     14 OAH         -6.3090     1.8240    -0.0340 o          1 3FV      -0.607100
     15 NAO         -5.0420     2.8760    -1.5260 ns         1 3FV      -0.421100
     16 CAP         -6.1720     3.3610    -2.2050 cd         1 3FV      -0.128700
     17 CAT         -7.4660     3.1350    -1.8690 cc         1 3FV      -0.131300
     18 NAS         -8.2490     3.7770    -2.7730 na         1 3FV      -0.043600
     19 NAR         -7.4140     4.4190    -3.6960 nc         1 3FV      -0.500800
     20 CAQ         -6.1640     4.1790    -3.3580 cd         1 3FV       0.268300
     21 CAU         -4.9590     4.6740    -4.0650 ca         1 3FV       0.409300
     22 NAV         -3.8140     4.7990    -3.4060 nb         1 3FV      -0.699000
     23 CAW         -2.7210     5.2360    -3.9990 ca         1 3FV       0.422200
     24 CAX         -2.7280     5.5820    -5.3370 ca         1 3FV      -0.255300
     25 CAY         -3.9050     5.4670    -6.0640 ca         1 3FV      -0.094000
     26 CAZ         -5.0370     5.0000    -5.4180 ca         1 3FV      -0.220300
     27 H1          -0.3600    -0.8900     0.5010 hc         1 3FV       0.064700
     28 H2          -0.3600     0.0180    -1.0210 hc         1 3FV       0.064700
     29 H3           1.8910    -0.8860    -0.5090 h1         1 3FV       0.039450
     30 H4           1.8910     0.8860    -0.5090 h1         1 3FV       0.039450
     31 H5           3.0220    -0.0470     1.3830 hn         1 3FV       0.361800
     32 H7           1.9890     1.1910     3.1070 h1         1 3FV       0.039450
     33 H8           1.9480     2.0850     1.5780 h1         1 3FV       0.039450
     34 H9          -0.3000     0.3700     2.6950 hc         1 3FV       0.064700
     35 H10         -0.2590     2.1420     2.6760 hc         1 3FV       0.064700
     36 H11         -0.1730     2.1300     0.2200 h1         1 3FV       0.085700
     37 H12         -2.3190    -0.1460     2.4570 h4         1 3FV       0.188000
     38 H13         -4.1250     3.0740    -1.8750 hn         1 3FV       0.358500
     39 H14         -7.8130     2.5470    -1.0280 h4         1 3FV       0.222000
     40 H15         -9.2500     3.7880    -2.7810 hn         1 3FV       0.336700
     41 H16         -1.8040     5.3250    -3.4290 h4         1 3FV       0.023100
     42 H17         -1.8240     5.9420    -5.8130 ha         1 3FV       0.137000
     43 H18         -3.9350     5.7290    -7.1140 ha         1 3FV       0.140000
     44 H19         -5.9720     4.8980    -5.9550 ha         1 3FV       0.156000
@<TRIPOS>BOND
     1    11    10 1
     2    14    13 2
     3    10     9 2
     4    10    12 1
     5     9     7 1
     6    13    12 1
     7    13    15 1
     8    12     8 2
     9    17    18 1
    10    17    16 2
    11    18    19 1
    12    15    16 1
    13     7     8 1
    14     7     6 1
    15    16    20 1
    16    19    20 2
    17     6     1 1
    18     6     5 1
    19    20    21 1
    20     1     2 1
    21     5     4 1
    22    21    22 ar
    23    21    26 ar
    24     2     3 1
    25    22    23 ar
    26     4     3 1
    27    26    25 ar
    28    23    24 ar
    29    25    24 ar
    30     1    27 1
    31     1    28 1
    32     2    29 1
    33     2    30 1
    34     3    31 1
    35     4    32 1
    36     4    33 1
    37     5    34 1
    38     5    35 1
    39     6    36 1
    40     9    37 1
    41    15    38 1
    42    17    39 1
    43    18    40 1
    44    23    41 1
    45    24    42 1
    46    25    43 1
    47    26    44 1
@<TRIPOS>SUBSTRUCTURE
     1 3FV         1 TEMP              0 ****  ****    0 ROOT
