@<TRIPOS>MOLECULE
3FW
   19    19     1     0     0
SMALL
bcc


@<TRIPOS>ATOM
      1 C24          0.0000     0.0000     0.0000 c3         1 3FW      -0.071500
      2 C25          1.5070     0.0000     0.0000 ca         1 3FW       0.301600
      3 C27          3.5020    -0.0060    -1.1470 ca         1 3FW       0.540700
      4 C29          3.5960     0.0000     1.1520 ca         1 3FW       0.481200
      5 C30          2.2100     0.0000     1.1970 ca         1 3FW      -0.312600
      6 N6          -0.4900     1.3790    -0.1210 nz         1 3FW       0.087400
      7 N26          2.1760    -0.0050    -1.1400 nb         1 3FW      -0.580000
      8 N28          4.2030    -0.0010    -0.0220 nb         1 3FW      -0.569000
      9 C31          4.2170    -0.0110    -2.4430 ce         1 3FW       0.295200
     10 N32          5.5080    -0.0110    -2.4680 n2         1 3FW      -0.526100
     11 H18         -0.3610    -0.5860    -0.8370 hx         1 3FW       0.091700
     12 H19         -0.3610    -0.4320     0.9260 hx         1 3FW       0.091700
     13 H20          4.1750     0.0020     2.0680 h4         1 3FW       0.011100
     14 H21          1.6870     0.0010     2.1460 ha         1 3FW       0.132000
     15 H24         -0.1750     1.7700    -0.9870 hn         1 3FW       0.225467
     16 H28          3.6580    -0.0150    -3.3710 h4         1 3FW       0.012800
     17 H29          6.0250    -0.0070    -1.6120 hn         1 3FW       0.337400
     18 H2          -1.4900     1.3800    -0.0970 hn         1 3FW       0.225467
     19 H63         -0.1370     1.9260     0.6400 hn         1 3FW       0.225467
@<TRIPOS>BOND
     1     1     2 1   
     2     1     6 1   
     3     1    11 1   
     4     1    12 1   
     5     2     5 ar  
     6     2     7 ar  
     7     3     7 ar  
     8     3     8 ar  
     9     3     9 1   
    10     4     5 ar  
    11     4     8 ar  
    12     4    13 1   
    13     5    14 1   
    14     6    15 1   
    15     6    18 1   
    16     6    19 1   
    17     9    10 2   
    18     9    16 1   
    19    10    17 1   
@<TRIPOS>SUBSTRUCTURE
     1 3FW         1 TEMP              0 ****  ****    0 ROOT
