@<TRIPOS>MOLECULE
molecule
   19    19     1     0     0
SMALL
bcc


@<TRIPOS>ATOM
      1 C24          0.0000     0.0000     0.0000 c3         1 3FW       0.066500
      2 C25          1.5070     0.0000     0.0000 ca         1 3FW       0.364600
      3 C27          3.5020    -0.0060    -1.1470 ca         1 3FW       0.678700
      4 C29          3.5960     0.0000     1.1520 ca         1 3FW       0.486200
      5 C30          2.2100     0.0000     1.1970 ca         1 3FW      -0.356600
      6 N6          -0.4900     1.3790    -0.1210 nz         1 3FW      -0.808600
      7 N26          2.1760    -0.0050    -1.1400 nb         1 3FW      -0.727000
      8 N28          4.2030    -0.0010    -0.0220 nb         1 3FW      -0.639000
      9 C31          4.2170    -0.0110    -2.4430 ce         1 3FW       0.356200
     10 N32          5.5080    -0.0110    -2.4680 n2         1 3FW      -0.701100
     11 H18         -0.3610    -0.4320     0.9260 hx         1 3FW       0.124700
     12 H19         -0.3610    -0.5860    -0.8370 hx         1 3FW       0.124700
     13 H20          4.1750     0.0020     2.0680 h4         1 3FW       0.064100
     14 H21          1.6870     0.0010     2.1460 ha         1 3FW       0.155000
     15 H24         -1.4900     1.3810    -0.0970 hn         1 3FW       0.460800
     16 H28          3.6580    -0.0150    -3.3710 h4         1 3FW      -0.001200
     17 H29          5.9910    -0.0150    -3.3450 hn         1 3FW       0.430400
     18 H2          -0.1750     1.7700    -0.9870 hn         1 3FW       0.460800
     19 H63         -0.1370     1.9260     0.6400 hn         1 3FW       0.460800
@<TRIPOS>BOND
     1    10     9 2
     2     8     4 ar
     3     8     3 ar
     4     4     5 ar
     5     9     3 1
     6     3     7 ar
     7     5     2 ar
     8     7     2 ar
     9     2     1 1
    10     1     6 1
    11     1    11 1
    12     1    12 1
    13     4    13 1
    14     5    14 1
    15     6    15 1
    16     9    16 1
    17    10    17 1
    18     6    18 1
    19    19     6 1
@<TRIPOS>SUBSTRUCTURE
     1 3FW         1 TEMP              0 ****  ****    0 ROOT
