@<TRIPOS>MOLECULE
molecule
   33    33     1     0     0
SMALL
bcc


@<TRIPOS>ATOM
      1 OAA          0.0000     0.0000     0.0000 o          1 3FX      -0.706200
      2 OAB          1.7960     0.0000     1.4750 o          1 3FX      -0.706200
      3 OAC          2.3540     0.6230    -2.8270 oh         1 3FX      -0.582800
      4 OAD          2.1540    -1.0860    -0.5490 o          1 3FX      -0.706200
      5 CAE          3.4150     6.0560    -6.8230 c3         1 3FX      -0.079400
      6 CAF          1.9850     6.2460    -6.3130 c3         1 3FX      -0.080400
      7 CAG          4.3130     5.6070    -5.6680 c3         1 3FX      -0.080400
      8 CAH          1.4660     4.9220    -5.7460 c3         1 3FX      -0.075900
      9 CAI          3.7940     4.2840    -5.1020 c3         1 3FX      -0.075900
     10 CAJ          2.2750     3.0320    -2.6490 c3         1 3FX       0.137800
     11 CAK          2.0580     1.5790    -0.6280 c3         1 3FX      -0.261600
     12 NAL          1.8660     3.2030    -4.0490 n7         1 3FX      -0.818200
     13 CAM          1.7380     1.7000    -2.1190 c3         1 3FX       0.174100
     14 CAN          2.3640     4.4730    -4.5920 c3         1 3FX       0.168500
     15 SAO          1.4210     0.0000     0.0000 s6         1 3FX       1.259800
     16 HOAC         1.7360     0.2520    -3.4350 ho         1 3FX       0.395000
     17 HAF          1.9780     6.9980    -5.5340 hc         1 3FX       0.035700
     18 HAFA         1.3500     6.5600    -7.1320 hc         1 3FX       0.035700
     19 HAG          4.3010     6.3610    -4.8890 hc         1 3FX       0.035700
     20 HAGA         5.3240     5.4720    -6.0310 hc         1 3FX       0.035700
     21 HAH          1.4780     4.1680    -6.5250 hc         1 3FX       0.048700
     22 HAHA         0.4540     5.0570    -5.3840 hc         1 3FX       0.048700
     23 HAI          3.8010     3.5320    -5.8820 hc         1 3FX       0.048700
     24 HAIA         4.4290     3.9690    -4.2830 hc         1 3FX       0.048700
     25 HAJ          3.3570     3.0360    -2.5860 h1         1 3FX       0.036700
     26 HAJA         1.8760     3.8450    -2.0540 h1         1 3FX       0.036700
     27 HAK          3.1300     1.6190    -0.4840 h1         1 3FX       0.080200
     28 HAKA         1.5900     2.3960    -0.0910 h1         1 3FX       0.080200
     29 HNAL         0.8670     3.1830    -4.1090 hn         1 3FX       0.344800
     30 HAM          0.6650     1.6600    -2.2630 h1         1 3FX       0.028700
     31 HAN          2.3570     5.2300    -3.8170 h1         1 3FX       0.021700
     32 HAE          3.4230     5.3000    -7.5990 hc         1 3FX       0.035200
     33 HAEA         3.7820     6.9940    -7.2210 hc         1 3FX       0.035200
@<TRIPOS>BOND
     1    15     1 1   
     2    15     2 1   
     3    13     3 1   
     4     3    16 1   
     5     4    15 1   
     6     7     5 1   
     7     6     5 1   
     8     5    32 1   
     9     5    33 1   
    10     8     6 1   
    11     6    17 1   
    12     6    18 1   
    13     7     9 1   
    14     7    19 1   
    15     7    20 1   
    16    14     8 1   
    17     8    21 1   
    18     8    22 1   
    19    14     9 1   
    20     9    23 1   
    21     9    24 1   
    22    13    10 1   
    23    10    12 1   
    24    10    25 1   
    25    10    26 1   
    26    11    13 1   
    27    11    15 1   
    28    11    27 1   
    29    11    28 1   
    30    14    12 1   
    31    12    29 1   
    32    13    30 1   
    33    14    31 1   
@<TRIPOS>SUBSTRUCTURE
     1 3FX         1 TEMP              0 ****  ****    0 ROOT
