@<TRIPOS>MOLECULE
molecule
   64    67     1     0     0
SMALL
bcc


@<TRIPOS>ATOM
      1 CAA          0.0000     0.0000     0.0000 c3         1 3FY      -0.054800
      2 CAB          5.6400    -4.2860     4.0020 c3         1 3FY       0.027600
      3 CAC         -2.2970    -4.7480     1.6360 c3         1 3FY       0.025600
      4 OAD         -0.1090    -3.3550     4.5490 o          1 3FY      -0.621800
      5 OAE          1.1510    -1.3350     5.3110 o          1 3FY      -0.621800
      6 CAG          3.7750     0.0000     0.0000 ca         1 3FY      -0.121000
      7 CAH          4.0510     0.0000     1.3550 ca         1 3FY      -0.133000
      8 CAI          2.4650    -0.0010    -0.4380 ca         1 3FY      -0.128000
      9 CAJ         -2.2720    -0.8770     7.3170 ca         1 3FY      -0.049500
     10 CAK         -1.2570     0.7970     5.9320 ca         1 3FY      -0.049500
     11 CAL          3.0160    -0.0050     2.2710 ca         1 3FY      -0.105000
     12 CAM         -2.6460    -1.5850     6.1920 ca         1 3FY      -0.211500
     13 CAN         -1.6180     0.0870     4.8040 ca         1 3FY      -0.211500
     14 CAO         -2.3210    -4.7970     5.2410 cc         1 3FY       0.365200
     15 CAP         -1.4700    -5.9910     3.6580 cd         1 3FY       0.410400
     16 CAQ          3.7540    -3.8480     2.3980 cd         1 3FY       0.393400
     17 CAR          3.3690    -3.2770     4.4770 cd         1 3FY      -0.156600
     18 CAS         -2.2320    -1.3900     2.4690 c3         1 3FY       0.215800
     19 CAT         -0.8630    -2.0100     2.1830 c3         1 3FY       0.193800
     20 CAU          0.5760    -0.0220     2.8310 c3         1 3FY       0.272100
     21 CAV         -3.5550    -3.0000     3.9160 c3         1 3FY       0.322100
     22 NAW         -1.5710    -5.8710     4.9530 nc         1 3FY      -0.690000
     23 NAX          2.5480    -3.3520     2.4640 nc         1 3FY      -0.636000
     24 CAY          1.4280    -0.0000     0.4780 ca         1 3FY      -0.065300
     25 CAZ         -1.5770     0.3140     7.1880 ca         1 3FY      -0.062900
     26 CBA         -2.3200    -1.1060     4.9300 ca         1 3FY       0.209600
     27 CBB          1.7040    -0.0110     1.8320 ca         1 3FY      -0.108300
     28 CBC         -2.6990    -4.2300     4.0790 cd         1 3FY      -0.262900
     29 CBD          2.2860    -2.9930     3.7290 cc         1 3FY       0.098200
     30 NBE         -2.6970    -1.8200     3.7910 nh         1 3FY      -0.724000
     31 NBF          0.1410    -1.4020     3.0600 n3         1 3FY      -0.789500
     32 NBG          4.3010    -3.8180     3.6330 na         1 3FY      -0.180900
     33 NBH         -2.1550    -4.9840     3.0750 na         1 3FY      -0.182900
     34 SBI          0.7840    -2.2760     4.3100 sy         1 3FY       1.373800
     35 HAA         -0.0850     0.6220    -0.8830 hc         1 3FY       0.043700
     36 HAAA        -0.3000    -1.0130    -0.2410 hc         1 3FY       0.043700
     37 HAAB        -0.6420     0.3910     0.7800 hc         1 3FY       0.043700
     38 HAB          6.3120    -4.1540     3.1640 h1         1 3FY       0.058033
     39 HABA         6.0010    -3.7160     4.8490 h1         1 3FY       0.058033
     40 HABB         5.5950    -5.3360     4.2670 h1         1 3FY       0.058033
     41 HAC         -2.8910    -3.8570     1.4730 h1         1 3FY       0.049033
     42 HACA        -1.3180    -4.6160     1.1930 h1         1 3FY       0.049033
     43 HACB        -2.7890    -5.5980     1.1780 h1         1 3FY       0.049033
     44 HAG          4.5860     0.0020    -0.7180 ha         1 3FY       0.126000
     45 HAH          5.0780     0.0030     1.6980 ha         1 3FY       0.126000
     46 HAI          2.2490    -0.0010    -1.4990 ha         1 3FY       0.128000
     47 HAJ         -2.5260    -1.2510     8.3010 ha         1 3FY       0.140000
     48 HAK         -0.7090     1.7270     5.8340 ha         1 3FY       0.140000
     49 HAL          3.2320    -0.0050     3.3320 ha         1 3FY       0.137000
     50 HAM         -3.1910    -2.5160     6.2940 ha         1 3FY       0.139500
     51 HAN         -1.3640     0.4660     3.8210 ha         1 3FY       0.139500
     52 HAO         -2.5780    -4.4470     6.2340 h4         1 3FY       0.034100
     53 HAP         -0.9230    -6.7670     3.1360 h5         1 3FY       0.056100
     54 HAQ          4.2360    -4.2200     1.5030 h5         1 3FY       0.067100
     55 HAR          3.4820    -3.1080     5.5410 h4         1 3FY       0.191000
     56 HAS         -2.1500    -0.3100     2.4490 h1         1 3FY       0.050700
     57 HASA        -2.9390    -1.7120     1.7150 h1         1 3FY       0.050700
     58 HAT         -0.9040    -3.0770     2.3650 h1         1 3FY       0.071700
     59 HATA        -0.5950    -1.8310     1.1480 h1         1 3FY       0.071700
     60 HAU         -0.2540     0.5580     2.4450 h1         1 3FY       0.070200
     61 HAUA         0.9150     0.4090     3.7640 h1         1 3FY       0.070200
     62 HAV         -4.1970    -2.8890     4.7820 h1         1 3FY       0.056700
     63 HAVA        -4.1640    -3.0990     3.0260 h1         1 3FY       0.056700
     64 BrAF        -1.0680     1.2810     8.7300 br         1 3FY      -0.113100
@<TRIPOS>BOND
     1     1    24 1
     2     1    35 1
     3     1    36 1
     4     1    37 1
     5    32     2 1
     6     2    38 1
     7     2    39 1
     8     2    40 1
     9    33     3 1
    10     3    41 1
    11     3    42 1
    12     3    43 1
    13     4    34 2
    14    34     5 2
    15    64    25 1
    16     8     6 ar
    17     6     7 ar
    18     6    44 1
    19     7    11 ar
    20     7    45 1
    21     8    24 ar
    22     8    46 1
    23    25     9 ar
    24     9    12 ar
    25     9    47 1
    26    25    10 ar
    27    10    13 ar
    28    10    48 1
    29    27    11 ar
    30    11    49 1
    31    12    26 ar
    32    12    50 1
    33    13    26 ar
    34    13    51 1
    35    22    14 1
    36    14    28 2
    37    14    52 1
    38    22    15 2
    39    15    33 1
    40    15    53 1
    41    23    16 2
    42    16    32 1
    43    16    54 1
    44    29    17 2
    45    17    32 1
    46    17    55 1
    47    30    18 1
    48    19    18 1
    49    18    56 1
    50    18    57 1
    51    19    31 1
    52    19    58 1
    53    19    59 1
    54    27    20 1
    55    20    31 1
    56    20    60 1
    57    20    61 1
    58    28    21 1
    59    30    21 1
    60    21    62 1
    61    21    63 1
    62    29    23 1
    63    24    27 ar
    64    26    30 1
    65    28    33 1
    66    34    29 1
    67    31    34 1
@<TRIPOS>SUBSTRUCTURE
     1 3FY         1 TEMP              0 ****  ****    0 ROOT
