@<TRIPOS>MOLECULE
3FY
   64    67     1     0     0
SMALL
bcc


@<TRIPOS>ATOM
      1 CAA          0.0000     0.0000     0.0000 c3         1 3FY       0.037200
      2 CAB          5.6400    -4.2860     4.0020 c3         1 3FY      -0.008400
      3 CAC         -2.2970    -4.7480     1.6360 c3         1 3FY      -0.030400
      4 OAD         -0.1090    -3.3550     4.5490 o          1 3FY      -0.574800
      5 OAE          1.1510    -1.3350     5.3110 o          1 3FY      -0.574800
      6 CAG          3.7750     0.0000     0.0000 ca         1 3FY      -0.094000
      7 CAH          4.0510     0.0000     1.3550 ca         1 3FY      -0.112000
      8 CAI          2.4650    -0.0010    -0.4380 ca         1 3FY      -0.102000
      9 CAJ         -2.2720    -0.8770     7.3170 ca         1 3FY      -0.022000
     10 CAK         -1.2570     0.7970     5.9320 ca         1 3FY      -0.022000
     11 CAL          3.0160    -0.0050     2.2710 ca         1 3FY      -0.081000
     12 CAM         -2.6460    -1.5850     6.1920 ca         1 3FY      -0.202000
     13 CAN         -1.6180     0.0870     4.8040 ca         1 3FY      -0.202000
     14 CAO         -2.3210    -4.7970     5.2410 cc         1 3FY       0.377200
     15 CAP         -1.4700    -5.9910     3.6580 cd         1 3FY       0.230400
     16 CAQ          3.7540    -3.8480     2.3980 cc         1 3FY       0.216400
     17 CAR          3.3690    -3.2770     4.4770 cc         1 3FY      -0.305600
     18 CAS         -2.2320    -1.3900     2.4690 c3         1 3FY       0.143800
     19 CAT         -0.8630    -2.0100     2.1830 c3         1 3FY       0.152800
     20 CAU          0.5760    -0.0220     2.8310 c3         1 3FY       0.259100
     21 CAV         -3.5550    -3.0000     3.9160 c3         1 3FY       0.288100
     22 NAW         -1.5710    -5.8710     4.9530 nc         1 3FY      -0.613000
     23 NAX          2.5480    -3.3520     2.4640 nd         1 3FY      -0.562000
     24 CAY          1.4280    -0.0000     0.4780 ca         1 3FY      -0.069300
     25 CAZ         -1.5770     0.3140     7.1880 ca         1 3FY      -0.004900
     26 CBA         -2.3200    -1.1060     4.9300 ca         1 3FY       0.088600
     27 CBB          1.7040    -0.0110     1.8320 ca         1 3FY      -0.116300
     28 CBC         -2.6990    -4.2300     4.0790 cd         1 3FY      -0.450900
     29 CBD          2.2860    -2.9930     3.7290 cd         1 3FY       0.237200
     30 NBE         -2.6970    -1.8200     3.7910 nh         1 3FY      -0.378000
     31 NBF          0.1410    -1.4020     3.0600 n3         1 3FY      -0.490500
     32 NBG          4.3010    -3.8180     3.6330 na         1 3FY       0.286100
     33 NBH         -2.1550    -4.9840     3.0750 na         1 3FY       0.300100
     34 SBI          0.7840    -2.2760     4.3100 sy         1 3FY       0.988800
     35 HAA         -0.0850     0.6220    -0.8830 hc         1 3FY       0.015033
     36 HAAA        -0.3000    -1.0130    -0.2410 hc         1 3FY       0.015033
     37 HAAB        -0.6420     0.3910     0.7800 hc         1 3FY       0.015033
     38 HAB          6.3120    -4.1540     3.1640 h1         1 3FY       0.025700
     39 HABA         6.0010    -3.7160     4.8490 h1         1 3FY       0.025700
     40 HABB         5.5950    -5.3360     4.2670 h1         1 3FY       0.025700
     41 HAC         -2.8910    -3.8570     1.4730 h1         1 3FY       0.023367
     42 HACA        -1.3180    -4.6160     1.1930 h1         1 3FY       0.023367
     43 HACB        -2.7890    -5.5980     1.1780 h1         1 3FY       0.023367
     44 HAG          4.5860     0.0020    -0.7180 ha         1 3FY       0.099000
     45 HAH          5.0780     0.0030     1.6980 ha         1 3FY       0.098000
     46 HAI          2.2490    -0.0010    -1.4990 ha         1 3FY       0.104000
     47 HAJ         -2.5260    -1.2510     8.3010 ha         1 3FY       0.108000
     48 HAK         -0.7090     1.7270     5.8340 ha         1 3FY       0.108000
     49 HAL          3.2320    -0.0050     3.3320 ha         1 3FY       0.114000
     50 HAM         -3.1910    -2.5160     6.2940 ha         1 3FY       0.128000
     51 HAN         -1.3640     0.4660     3.8210 ha         1 3FY       0.128000
     52 HAO         -2.5780    -4.4470     6.2340 h4         1 3FY      -0.001900
     53 HAP         -0.9230    -6.7670     3.1360 h5         1 3FY       0.013100
     54 HAQ          4.2360    -4.2200     1.5030 h5         1 3FY       0.025100
     55 HAR          3.4820    -3.1080     5.5410 h4         1 3FY       0.166000
     56 HAS         -2.1500    -0.3100     2.4490 h1         1 3FY       0.027200
     57 HASA        -2.9390    -1.7120     1.7150 h1         1 3FY       0.027200
     58 HAT         -0.9040    -3.0770     2.3650 h1         1 3FY       0.047700
     59 HATA        -0.5950    -1.8310     1.1480 h1         1 3FY       0.047700
     60 HAU         -0.2540     0.5580     2.4450 h1         1 3FY       0.044700
     61 HAUA         0.9150     0.4090     3.7640 h1         1 3FY       0.044700
     62 HAV         -4.1970    -2.8890     4.7820 h1         1 3FY       0.023200
     63 HAVA        -4.1640    -3.0990     3.0260 h1         1 3FY       0.023200
     64 BrAF        -1.0680     1.2810     8.7300 br         1 3FY      -0.155100
@<TRIPOS>BOND
     1     1    24 1   
     2     1    35 1   
     3     1    36 1   
     4     1    37 1   
     5     2    32 1   
     6     2    38 1   
     7     2    39 1   
     8     2    40 1   
     9     3    33 1   
    10     3    41 1   
    11     3    42 1   
    12     3    43 1   
    13     4    34 2   
    14     5    34 2   
    15     6     7 ar  
    16     6     8 ar  
    17     6    44 1   
    18     7    11 ar  
    19     7    45 1   
    20     8    24 ar  
    21     8    46 1   
    22     9    12 ar  
    23     9    25 ar  
    24     9    47 1   
    25    10    13 ar  
    26    10    25 ar  
    27    10    48 1   
    28    11    27 ar  
    29    11    49 1   
    30    12    26 ar  
    31    12    50 1   
    32    13    26 ar  
    33    13    51 1   
    34    14    22 1   
    35    14    28 2   
    36    14    52 1   
    37    15    22 2   
    38    15    33 1   
    39    15    53 1   
    40    16    23 2   
    41    16    32 1   
    42    16    54 1   
    43    17    29 2   
    44    17    32 1   
    45    17    55 1   
    46    18    19 1   
    47    18    30 1   
    48    18    56 1   
    49    18    57 1   
    50    19    31 1   
    51    19    58 1   
    52    19    59 1   
    53    20    27 1   
    54    20    31 1   
    55    20    60 1   
    56    20    61 1   
    57    21    28 1   
    58    21    30 1   
    59    21    62 1   
    60    21    63 1   
    61    23    29 1   
    62    24    27 ar  
    63    25    64 1   
    64    26    30 1   
    65    28    33 1   
    66    29    34 1   
    67    31    34 1   
@<TRIPOS>SUBSTRUCTURE
     1 3FY         1 TEMP              0 ****  ****    0 ROOT
