@<TRIPOS>MOLECULE
3FZ
   20    20     1     0     0
SMALL
bcc


@<TRIPOS>ATOM
      1 O            0.0000     0.0000     0.0000 o          1 3FZ      -0.513100
      2 N1           6.1940     0.0000     3.6950 nz         1 3FZ       0.123400
      3 C2           4.0320     0.0010     2.4850 ca         1 3FZ      -0.214900
      4 N2           6.1730     0.0070     1.3740 n2         1 3FZ      -0.458100
      5 C3           3.3240     0.0000     3.6880 ca         1 3FZ      -0.084000
      6 C4           1.9430    -0.0000     3.6820 ca         1 3FZ      -0.084000
      7 C5           1.2530     0.0010     2.4870 ca         1 3FZ       0.025000
      8 C6           1.9490     0.0000     1.2730 ca         1 3FZ      -0.200600
      9 C7           1.2130     0.0000     0.0000 c          1 3FZ       0.660500
     10 C8           3.3450     0.0060     1.2750 ca         1 3FZ       0.026000
     11 HN1          7.1790    -0.0010     3.5190 hn         1 3FZ       0.227800
     12 HN1A         5.9480    -0.8170     4.2180 hn         1 3FZ       0.227800
     13 HN2          7.1740     0.0090     1.3800 hn         1 3FZ       0.338400
     14 H3           3.8600    -0.0010     4.6290 ha         1 3FZ       0.078000
     15 H4           1.4000    -0.0000     4.6190 ha         1 3FZ       0.129000
     16 H5           0.1690     0.0000     2.4890 ha         1 3FZ       0.142000
     17 H7           1.7540    -0.0000    -0.9380 h4         1 3FZ      -0.019800
     18 H8           3.8910     0.0060     0.3400 ha         1 3FZ       0.133000
     19 H13          5.9500     0.8180     4.2180 hn         1 3FZ       0.227800
     20 C1           5.5130     0.0010     2.4970 ce         1 3FZ       0.235800
@<TRIPOS>BOND
     1     1     9 2   
     2     2    11 1   
     3     2    12 1   
     4     2    19 1   
     5     2    20 1   
     6     3     5 ar  
     7     3    10 ar  
     8     3    20 1   
     9     4    13 1   
    10     4    20 2   
    11     5     6 ar  
    12     5    14 1   
    13     6     7 ar  
    14     6    15 1   
    15     7     8 ar  
    16     7    16 1   
    17     8     9 1   
    18     8    10 ar  
    19     9    17 1   
    20    10    18 1   
@<TRIPOS>SUBSTRUCTURE
     1 3FZ         1 TEMP              0 ****  ****    0 ROOT
