@<TRIPOS>MOLECULE
molecule
   20    20     1     0     0
SMALL
bcc


@<TRIPOS>ATOM
      1 O            0.0000     0.0000     0.0000 o          1 3FZ      -0.472100
      2 N1           6.1940     0.0000     3.6950 nz         1 3FZ      -0.742600
      3 C2           4.0320     0.0010     2.4850 ca         1 3FZ      -0.246900
      4 N2           6.1730     0.0070     1.3740 n2         1 3FZ      -0.719100
      5 C3           3.3240     0.0000     3.6880 ca         1 3FZ      -0.102000
      6 C4           1.9430    -0.0000     3.6820 ca         1 3FZ      -0.110000
      7 C5           1.2530     0.0010     2.4870 ca         1 3FZ      -0.018000
      8 C6           1.9490     0.0000     1.2730 ca         1 3FZ      -0.167600
      9 C7           1.2130     0.0000     0.0000 c          1 3FZ       0.568500
     10 C8           3.3450     0.0060     1.2750 ca         1 3FZ      -0.047000
     11 HN1          7.1790     0.0000     3.5190 hn         1 3FZ       0.474800
     12 HN1A         5.9490     0.8170     4.2190 hn         1 3FZ       0.474800
     13 HN2          5.6810     0.0090     0.5020 hn         1 3FZ       0.482400
     14 H3           3.8600    -0.0010     4.6290 ha         1 3FZ       0.112000
     15 H4           1.4000    -0.0000     4.6190 ha         1 3FZ       0.167000
     16 H5           0.1690     0.0000     2.4890 ha         1 3FZ       0.185000
     17 H7           1.7540    -0.0000    -0.9380 h4         1 3FZ       0.022200
     18 H8           3.8900     0.0060     0.3400 ha         1 3FZ       0.142000
     19 H13          5.9480    -0.8170     4.2180 hn         1 3FZ       0.474800
     20 C1           5.5130     0.0010     2.4970 ce         1 3FZ       0.521800
@<TRIPOS>BOND
     1     1     9 2
     2    20     2 1
     3    20     3 1
     4    20     4 2
     5     3     5 ar
     6     3    10 ar
     7     5     6 ar
     8     6     7 ar
     9     7     8 ar
    10     8     9 1
    11     8    10 ar
    12     2    11 1
    13     2    12 1
    14     4    13 1
    15     5    14 1
    16     6    15 1
    17     7    16 1
    18     9    17 1
    19    10    18 1
    20    19     2 1
@<TRIPOS>SUBSTRUCTURE
     1 3FZ         1 TEMP              0 ****  ****    0 ROOT
