@<TRIPOS>MOLECULE
molecule
   29    30     1     0     0
SMALL
bcc


@<TRIPOS>ATOM
      1 C1           0.0000     0.0000     0.0000 ca         1 3G1      -0.106500
      2 C2           1.3960     0.0000     0.0000 ca         1 3G1      -0.044600
      3 C3           2.0880     0.0000     1.2120 ca         1 3G1      -0.112000
      4 C4           1.3890     0.0000     2.4020 ca         1 3G1      -0.129000
      5 C6          -0.6860    -0.0010     1.1970 ca         1 3G1      -0.080000
      6 C8          -0.9550     1.7690    -1.9470 c3         1 3G1      -0.044800
      7 C10         -0.9980     1.9340    -4.4440 ca         1 3G1      -0.121000
      8 C11         -1.6760     2.0950    -5.6390 ca         1 3G1      -0.137000
      9 C12         -3.0460     2.2720    -5.6380 ca         1 3G1      -0.151000
     10 C13         -3.7400     2.2880    -4.4420 ca         1 3G1      -0.137000
     11 C14         -3.0640     2.1260    -3.2480 ca         1 3G1      -0.121000
     12 O2           1.5330    -0.0010    -2.3310 o          1 3G1      -0.831800
     13 C7           2.1370    -0.0010    -1.2780 c          1 3G1       0.878200
     14 O3           3.4850     0.0000    -1.2750 o          1 3G1      -0.831800
     15 C5           0.0060    -0.0000     2.3950 ca         1 3G1      -0.171000
     16 S1          -0.8840     0.0060    -1.5250 sx         1 3G1       0.468400
     17 O1          -2.1770    -0.4430    -1.1460 o          1 3G1      -0.593200
     18 C9          -1.6930     1.9440    -3.2490 ca         1 3G1      -0.040300
     19 H1           3.1720     0.0000     1.2190 ha         1 3G1       0.155000
     20 H2           1.9250     0.0010     3.3430 ha         1 3G1       0.106000
     21 H3          -1.7700    -0.0010     1.1980 ha         1 3G1       0.135000
     22 H4           0.0510     2.1570    -2.0470 h1         1 3G1       0.083700
     23 H5          -1.4730     2.3070    -1.1620 h1         1 3G1       0.083700
     24 H8          -3.5760     2.3990    -6.5740 ha         1 3G1       0.111000
     25 H9          -4.8140     2.4290    -4.4420 ha         1 3G1       0.116500
     26 H10         -3.6080     2.1380    -2.3110 ha         1 3G1       0.145500
     27 H12         -0.5380    -0.0000     3.3320 ha         1 3G1       0.105000
     28 H6           0.0760     1.7950    -4.4450 ha         1 3G1       0.145500
     29 H7          -1.1310     2.0850    -6.5750 ha         1 3G1       0.116500
@<TRIPOS>BOND
     1    10     9 ar
     2    10    11 ar
     3     9     8 ar
     4    11    18 ar
     5     8     7 ar
     6    18     7 ar
     7    18     6 1
     8     6    16 1
     9    17    16 2
    10    16     1 1
    11     5     1 ar
    12     5    15 ar
    13     1     2 ar
    14    15     4 ar
    15    12    13 1
    16     2    13 1
    17     2     3 ar
    18    13    14 1
    19     4     3 ar
    20     3    19 1
    21     4    20 1
    22     5    21 1
    23     6    22 1
    24     6    23 1
    25     7    28 1
    26     8    29 1
    27     9    24 1
    28    10    25 1
    29    11    26 1
    30    15    27 1
@<TRIPOS>SUBSTRUCTURE
     1 3G1         1 TEMP              0 ****  ****    0 ROOT
