@<TRIPOS>MOLECULE
3G1
   29    30     1     0     0
SMALL
bcc


@<TRIPOS>ATOM
      1 C1         -0.0850    0.0180    0.0010 ca        1 3G1     -0.104500
      2 C2          1.3050    0.1330   -0.1220 ca        1 3G1     -0.063600
      3 C3          2.1040    0.1170    1.0310 ca        1 3G1     -0.129000
      4 C4          1.5330   -0.0110    2.2920 ca        1 3G1     -0.124000
      5 C6         -0.6490   -0.1130    1.2770 ca        1 3G1     -0.080000
      6 C8         -1.2060    1.6780   -1.7800 c3        1 3G1     -0.024800
      7 C10        -0.9560    1.6750   -4.2600 ca        1 3G1     -0.123500
      8 C11        -1.4730    1.8780   -5.5370 ca        1 3G1     -0.144000
      9 C12        -2.7990    2.2810   -5.7050 ca        1 3G1     -0.152000
     10 C13        -3.6100    2.4760   -4.5880 ca        1 3G1     -0.144000
     11 C14        -3.0990    2.2750   -3.3070 ca        1 3G1     -0.123500
     12 O2          1.2830    0.3270   -2.5100 o         1 3G1     -0.828300
     13 C7          2.0050    0.2670   -1.4690 c         1 3G1      0.903200
     14 O3          3.2630    0.3140   -1.4870 o         1 3G1     -0.828300
     15 C5          0.1460   -0.1290    2.4170 ca        1 3G1     -0.175000
     16 S1         -1.0940   -0.0580   -1.3950 sx        1 3G1      0.390400
     17 O1         -2.4560   -0.3860   -0.8550 o         1 3G1     -0.586200
     18 C9         -1.7680    1.8740   -3.1320 ca        1 3G1     -0.040300
     19 H1          3.1960    0.2060    0.9040 ha        1 3G1      0.156000
     20 H2          2.1680   -0.0210    3.1890 ha        1 3G1      0.108000
     21 H3         -1.7460   -0.2130    1.3640 ha        1 3G1      0.147000
     22 H4         -0.1560    2.0760   -1.7520 h1        1 3G1      0.095200
     23 H5         -1.8120    2.2240   -1.0180 h1        1 3G1      0.095200
     24 H8         -3.2030    2.4410   -6.7140 ha        1 3G1      0.110000
     25 H9         -4.6560    2.7870   -4.7160 ha        1 3G1      0.116500
     26 H10        -3.7440    2.4190   -2.4280 ha        1 3G1      0.162500
     27 H12        -0.3120   -0.2340    3.4090 ha        1 3G1      0.109000
     28 H6          0.0910    1.3450   -4.1120 ha        1 3G1      0.162500
     29 H7         -0.8320    1.7180   -6.4150 ha        1 3G1      0.116500
@<TRIPOS>BOND
     1    1    2 ar  
     2    1    5 ar  
     3    1   16 1   
     4    2    3 ar  
     5    2   13 1   
     6    3    4 ar  
     7    3   19 1   
     8    4   15 ar  
     9    4   20 1   
    10    5   15 ar  
    11    5   21 1   
    12    6   16 1   
    13    6   18 1   
    14    6   22 1   
    15    6   23 1   
    16    7    8 ar  
    17    7   18 ar  
    18    7   28 1   
    19    8    9 ar  
    20    8   29 1   
    21    9   10 ar  
    22    9   24 1   
    23   10   11 ar  
    24   10   25 1   
    25   11   18 ar  
    26   11   26 1   
    27   12   13 1   
    28   13   14 1   
    29   15   27 1   
    30   16   17 2   
@<TRIPOS>SUBSTRUCTURE
     1 3G1         1 TEMP              0 ****  ****    0 ROOT
