@<TRIPOS>MOLECULE
3G3
   27    29     1     0     0
SMALL
bcc


@<TRIPOS>ATOM
      1 O18          0.0000     0.0000     0.0000 o          1 3G3      -0.611500
      2 C12          1.2150     0.0000     0.0000 c          1 3G3       0.656100
      3 C11          2.0780     0.0000     1.2000 ca         1 3G3      -0.171100
      4 C13          1.8380    -0.0010     2.5640 ca         1 3G3      -0.018000
      5 C14          2.9050    -0.0010     3.4500 ca         1 3G3      -0.087000
      6 C15          4.2050    -0.0000     2.9800 ca         1 3G3      -0.087000
      7 C16          4.4600     0.0010     1.6170 ca         1 3G3      -0.018000
      8 C10          3.4040     0.0010     0.7210 ca         1 3G3      -0.171100
      9 N8           1.9990    -0.0050    -1.0930 n          1 3G3      -0.138400
     10 C9           3.3010     0.0010    -0.7540 c          1 3G3       0.656100
     11 O17          4.2360     0.0020    -1.5290 o          1 3G3      -0.611500
     12 C7           1.5020    -0.0130    -2.4700 c3         1 3G3       0.056000
     13 C6           1.3280     1.4270    -2.9580 c3         1 3G3      -0.038700
     14 C5           0.8160     1.4200    -4.3750 cc         1 3G3       0.138800
     15 N4           1.3590     0.8110    -5.4010 nd         1 3G3      -0.338000
     16 N3           0.6270     1.0420    -6.4350 nd         1 3G3      -0.022000
     17 N2          -0.3700     1.7810    -6.0960 nc         1 3G3      -0.396800
     18 N1          -0.2930     2.0310    -4.8320 na         1 3G3       0.404600
     19 H13          0.8220    -0.0020     2.9380 ha         1 3G3       0.118000
     20 H14          2.7190    -0.0020     4.5170 ha         1 3G3       0.111000
     21 H15          5.0310    -0.0000     3.6820 ha         1 3G3       0.111000
     22 H16          5.4800     0.0020     1.2540 ha         1 3G3       0.118000
     23 H7           0.5470    -0.5240    -2.5070 h1         1 3G3       0.053700
     24 H7A          2.2110    -0.5260    -3.1080 h1         1 3G3       0.053700
     25 H6           0.6180     1.9410    -2.3200 hc         1 3G3       0.033700
     26 H6A          2.2820     1.9380    -2.9210 hc         1 3G3       0.033700
     27 HN1         -0.9330     2.5820    -4.2950 hn         1 3G3       0.163700
@<TRIPOS>BOND
     1     1     2 2   
     2     2     3 1   
     3     2     9 1   
     4     3     4 ar  
     5     3     8 ar  
     6     4     5 ar  
     7     4    19 1   
     8     5     6 ar  
     9     5    20 1   
    10     6     7 ar  
    11     6    21 1   
    12     7     8 ar  
    13     7    22 1   
    14     8    10 1   
    15     9    10 1   
    16     9    12 1   
    17    10    11 2   
    18    12    13 1   
    19    12    23 1   
    20    12    24 1   
    21    13    14 1   
    22    13    25 1   
    23    13    26 1   
    24    14    15 2   
    25    14    18 1   
    26    15    16 1   
    27    16    17 2   
    28    17    18 1   
    29    18    27 1   
@<TRIPOS>SUBSTRUCTURE
     1 3G3         1 TEMP              0 ****  ****    0 ROOT
