@<TRIPOS>MOLECULE
molecule
   27    29     1     0     0
SMALL
bcc


@<TRIPOS>ATOM
      1 O18          0.0000     0.0000     0.0000 o          1 3G3      -0.572500
      2 C12          1.2150     0.0000     0.0000 c          1 3G3       0.720600
      3 C11          2.0780     0.0000     1.2000 ca         1 3G3      -0.155100
      4 C13          1.8380    -0.0010     2.5640 ca         1 3G3      -0.059000
      5 C14          2.9050    -0.0010     3.4500 ca         1 3G3      -0.112500
      6 C15          4.2050    -0.0000     2.9800 ca         1 3G3      -0.112500
      7 C16          4.4600     0.0010     1.6170 ca         1 3G3      -0.059000
      8 C10          3.4040     0.0010     0.7210 ca         1 3G3      -0.155100
      9 N8           1.9990    -0.0050    -1.0930 n          1 3G3      -0.496400
     10 C9           3.3010     0.0010    -0.7540 c          1 3G3       0.720600
     11 O17          4.2360     0.0020    -1.5290 o          1 3G3      -0.572500
     12 C7           1.5020    -0.0130    -2.4700 c3         1 3G3       0.118000
     13 C6           1.3280     1.4270    -2.9580 c3         1 3G3      -0.119700
     14 C5           0.8160     1.4200    -4.3750 cc         1 3G3       0.345800
     15 N4           1.3590     0.8110    -5.4010 nd         1 3G3      -0.378000
     16 N3           0.6270     1.0420    -6.4350 nd         1 3G3      -0.029000
     17 N2          -0.3700     1.7810    -6.0960 nc         1 3G3      -0.223800
     18 N1          -0.2930     2.0310    -4.8320 na         1 3G3      -0.119400
     19 H13          0.8220    -0.0020     2.9380 ha         1 3G3       0.152000
     20 H14          2.7190    -0.0020     4.5170 ha         1 3G3       0.144000
     21 H15          5.0310    -0.0000     3.6820 ha         1 3G3       0.144000
     22 H16          5.4800     0.0020     1.2540 ha         1 3G3       0.152000
     23 H7           0.5470    -0.5240    -2.5070 h1         1 3G3       0.088200
     24 H7A          2.2110    -0.5260    -3.1080 h1         1 3G3       0.088200
     25 H6           0.6180     1.9410    -2.3200 hc         1 3G3       0.074200
     26 H6A          2.2820     1.9380    -2.9210 hc         1 3G3       0.074200
     27 HN1         -0.9330     2.5820    -4.2950 hn         1 3G3       0.344700
@<TRIPOS>BOND
     1     1     2 2   
     2     2     3 1   
     3     2     9 1   
     4     3     4 ar  
     5     3     8 ar  
     6     4     5 ar  
     7     5     6 ar  
     8     6     7 ar  
     9     7     8 ar  
    10     8    10 1   
    11     9    10 1   
    12     9    12 1   
    13    10    11 2   
    14    12    13 1   
    15    13    14 1   
    16    14    15 2   
    17    14    18 1   
    18    15    16 1   
    19    16    17 2   
    20    17    18 1   
    21     4    19 1   
    22     5    20 1   
    23     6    21 1   
    24     7    22 1   
    25    12    23 1   
    26    12    24 1   
    27    13    25 1   
    28    13    26 1   
    29    18    27 1   
@<TRIPOS>SUBSTRUCTURE
     1 3G3         1 TEMP              0 ****  ****    0 ROOT
