@<TRIPOS>MOLECULE
3G4
   48    49     1     0     0
SMALL
bcc


@<TRIPOS>ATOM
      1 Cl7          0.0000     0.0000     0.0000 cl         1 3G4      -0.016400
      2 C1           1.7360     0.0000     0.0000 ca         1 3G4      -0.073600
      3 C2           2.4280     0.0000     1.1980 ca         1 3G4      -0.043000
      4 C3           3.8100     0.0010     1.1970 ca         1 3G4      -0.141000
      5 C4           4.5020     0.0010     0.0010 ca         1 3G4       0.027000
      6 C6           2.4280    -0.0050    -1.1970 ca         1 3G4       0.025700
      7 C8           1.6760    -0.0130    -2.5040 c3         1 3G4      -0.012800
      8 C5           3.8100     0.0010    -1.1960 ca         1 3G4      -0.139500
      9 S9           4.6920     0.0010    -2.7220 sy         1 3G4       1.033200
     10 O11          4.1180     1.0290    -3.5170 o          1 3G4      -0.566300
     11 O12          6.0730    -0.0430    -2.3880 o          1 3G4      -0.566300
     12 N10          4.3510    -1.4280    -3.4860 nu         1 3G4      -0.485800
     13 C13          4.7320    -2.6330    -2.9080 ca         1 3G4       0.553200
     14 N14          5.4550    -2.6300    -1.8000 nb         1 3G4      -0.574000
     15 C18          4.3430    -3.8330    -3.4960 ca         1 3G4      -0.272300
     16 C17          4.7280    -5.0260    -2.9100 ca         1 3G4      -0.031000
     17 C16          5.4920    -4.9770    -1.7510 ca         1 3G4      -0.258300
     18 C15          5.8380    -3.7510    -1.2190 ca         1 3G4       0.431600
     19 C19          6.6620    -3.6930     0.0420 c3         1 3G4      -0.149700
     20 C20          7.9180    -2.9000    -0.2160 c          1 3G4       0.581100
     21 O22          8.0840    -2.3590    -1.2880 o          1 3G4      -0.595100
     22 N21          8.8550    -2.7930     0.7460 n          1 3G4      -0.172800
     23 C23          8.7060    -3.5340     2.0020 c3         1 3G4       0.049000
     24 C26          9.3690    -4.9060     1.8660 c3         1 3G4      -0.021100
     25 C24         10.0250    -1.9350     0.5370 c3         1 3G4       0.049000
     26 C25          9.7600    -0.5560     1.1420 c3         1 3G4      -0.021100
     27 H2           1.8870    -0.0010     2.1360 ha         1 3G4       0.111000
     28 H3           4.3510     0.0010     2.1360 ha         1 3G4       0.109000
     29 H4           5.5850     0.0040     0.0020 ha         1 3G4       0.138000
     30 H8           1.8630    -0.9450    -3.0230 hc         1 3G4       0.036700
     31 H8A          0.6150     0.0850    -2.3090 hc         1 3G4       0.036700
     32 H8B          2.0090     0.8160    -3.1170 hc         1 3G4       0.036700
     33 HN10         3.9180    -1.4220    -4.3880 hn         1 3G4       0.347800
     34 H18          3.7470    -3.8330    -4.4010 ha         1 3G4       0.116000
     35 H17          4.4430    -5.9750    -3.3450 ha         1 3G4       0.106000
     36 H16          5.8100    -5.8920    -1.2670 ha         1 3G4       0.114000
     37 H19          6.9250    -4.6980     0.3480 hc         1 3G4       0.036700
     38 H19A         6.0880    -3.2150     0.8270 hc         1 3G4       0.036700
     39 H23          7.6530    -3.6620     2.2220 h1         1 3G4       0.027200
     40 H23A         9.1790    -2.9820     2.8050 h1         1 3G4       0.027200
     41 H26          8.6980    -5.6700     2.2380 hc         1 3G4       0.009367
     42 H26A        10.2880    -4.9210     2.4400 hc         1 3G4       0.009367
     43 H26B         9.5920    -5.0980     0.8230 hc         1 3G4       0.009367
     44 H24         10.2130    -1.8340    -0.5250 h1         1 3G4       0.027200
     45 H24A        10.8890    -2.3800     1.0160 h1         1 3G4       0.027200
     46 H25          8.8620    -0.5920     1.7460 hc         1 3G4       0.009367
     47 H25A        10.6010    -0.2660     1.7610 hc         1 3G4       0.009367
     48 H25B         9.6310     0.1690     0.3460 hc         1 3G4       0.009367
@<TRIPOS>BOND
     1     1     2 1   
     2     2     3 ar  
     3     2     6 ar  
     4     3     4 ar  
     5     3    27 1   
     6     4     5 ar  
     7     4    28 1   
     8     5     8 ar  
     9     5    29 1   
    10     6     7 1   
    11     6     8 ar  
    12     7    30 1   
    13     7    31 1   
    14     7    32 1   
    15     8     9 1   
    16     9    10 2   
    17     9    11 2   
    18     9    12 1   
    19    12    13 1   
    20    12    33 1   
    21    13    14 ar  
    22    13    15 ar  
    23    14    18 ar  
    24    15    16 ar  
    25    15    34 1   
    26    16    17 ar  
    27    16    35 1   
    28    17    18 ar  
    29    17    36 1   
    30    18    19 1   
    31    19    20 1   
    32    19    37 1   
    33    19    38 1   
    34    20    21 2   
    35    20    22 1   
    36    22    23 1   
    37    22    25 1   
    38    23    24 1   
    39    23    39 1   
    40    23    40 1   
    41    24    41 1   
    42    24    42 1   
    43    24    43 1   
    44    25    26 1   
    45    25    44 1   
    46    25    45 1   
    47    26    46 1   
    48    26    47 1   
    49    26    48 1   
@<TRIPOS>SUBSTRUCTURE
     1 3G4         1 TEMP              0 ****  ****    0 ROOT
