@<TRIPOS>MOLECULE
3G5
   30    32     1     0     0
SMALL
bcc


@<TRIPOS>ATOM
      1 CAI         0.0920   -0.3700    0.0050 ca        1 3G5     -0.102500
      2 CAG         1.4780   -0.3050    0.1000 ca        1 3G5     -0.127500
      3 CAR        -0.7040   -0.0540    1.1200 ca        1 3G5     -0.125800
      4 OAC         4.2850   -0.1380    0.3570 o         1 3G5     -0.820800
      5 OAA         4.1200    0.4750    2.5020 o         1 3G5     -0.820800
      6 CAH         1.3040    0.3940    2.4030 ca        1 3G5     -0.127500
      7 CAJ        -0.0810    0.3350    2.3210 ca        1 3G5     -0.102500
      8 CAS        -2.9280   -0.8850    0.2050 cc        1 3G5     -0.121100
      9 CAW        -4.1060    0.8020    2.0550 ca        1 3G5      0.198100
     10 OAM        -2.7390    0.7370    1.9680 os        1 3G5     -0.194200
     11 CAU        -4.3880   -0.8770    0.2500 c         1 3G5      0.572900
     12 CAQ        -4.6440    1.6910    3.0200 ca        1 3G5     -0.067900
     13 BRF        -3.5790    2.7370    4.1480 br        1 3G5     -0.046100
     14 CAK        -6.0270    1.7920    3.1350 ca        1 3G5     -0.035000
     15 CAP         2.0990    0.0740    1.2950 ca        1 3G5     -0.083600
     16 CAL        -6.3500    0.1630    1.3770 ca        1 3G5     -0.006000
     17 CAT        -2.1530   -0.1240    1.0380 cd        1 3G5      0.213900
     18 CAO        -6.8810    1.0350    2.3200 ca        1 3G5     -0.080900
     19 CAV        -4.9610    0.0410    1.2390 ca        1 3G5     -0.222600
     20 H1         -0.3810   -0.6660   -0.9430 ha        1 3G5      0.130000
     21 H2          2.1190   -0.5510   -0.7630 ha        1 3G5      0.160000
     22 H4          1.8100    0.6910    3.3370 ha        1 3G5      0.160000
     23 H5         -0.6990    0.5910    3.1940 ha        1 3G5      0.130000
     24 H6         -6.4600    2.4810    3.8820 ha        1 3G5      0.159000
     25 H7         -6.9950   -0.4490    0.7210 ha        1 3G5      0.173000
     26 H8         -2.9820   -2.3450   -1.0140 ho        1 3G5      0.427000
     27 CAN         3.6190    0.1420    1.3920 c         1 3G5      0.905200
     28 OAB        -5.0760   -1.6090   -0.4840 o         1 3G5     -0.579100
     29 BRE        -8.7350    1.2050    2.5130 br        1 3G5     -0.087100
     30 OAD        -2.3180   -1.6920   -0.7360 oh        1 3G5     -0.478100
@<TRIPOS>BOND
     1    1    2 ar  
     2    1    3 ar  
     3    1   20 1   
     4    2   15 ar  
     5    2   21 1   
     6    3    7 ar  
     7    3   17 1   
     8    4   27 1   
     9    5   27 1   
    10    6    7 ar  
    11    6   15 ar  
    12    6   22 1   
    13    7   23 1   
    14    8   11 1   
    15    8   17 2   
    16    8   30 1   
    17    9   10 1   
    18    9   12 ar  
    19    9   19 ar  
    20   10   17 1   
    21   11   19 1   
    22   11   28 2   
    23   12   13 1   
    24   12   14 ar  
    25   14   18 ar  
    26   14   24 1   
    27   15   27 1   
    28   16   18 ar  
    29   16   19 ar  
    30   16   25 1   
    31   18   29 1   
    32   26   30 1   
@<TRIPOS>SUBSTRUCTURE
     1 3G5         1 TEMP              0 ****  ****    0 ROOT
