@<TRIPOS>MOLECULE
molecule
   30    32     1     0     0
SMALL
bcc


@<TRIPOS>ATOM
      1 CAI          0.0000     0.0000     0.0000 ca         1 3G5      -0.104000
      2 CAG          1.3760     0.0000     0.0000 ca         1 3G5      -0.115500
      3 CAR         -0.6980     0.0050     1.2120 ca         1 3G5      -0.118800
      4 OAC          4.2250    -0.0100     0.0410 o          1 3G5      -0.828300
      5 OAA          4.1600     0.0100     2.2600 o          1 3G5      -0.828300
      6 CAH          1.3780     0.0110     2.4210 ca         1 3G5      -0.115500
      7 CAJ          0.0020     0.0110     2.4220 ca         1 3G5      -0.104000
      8 CAS         -2.8300    -0.8800     0.4090 cc         1 3G5      -0.125100
      9 CAW         -4.1660     0.9390     2.0650 ca         1 3G5       0.195100
     10 OAM         -2.8200     0.8760     2.0060 os         1 3G5      -0.179200
     11 CAU         -4.2520    -0.8960     0.4050 c          1 3G5       0.565900
     12 CAQ         -4.8000     1.8580     2.8940 ca         1 3G5      -0.056900
     13 BrF         -3.7740     3.0400     3.9550 br         1 3G5      -0.058100
     14 CAK         -6.1780     1.9070     2.9400 ca         1 3G5      -0.033000
     15 CAP          2.0750     0.0000     1.2090 ca         1 3G5      -0.065600
     16 CAL         -6.3340     0.1280     1.3380 ca         1 3G5      -0.005000
     17 CAT         -2.1730     0.0050     1.2130 cd         1 3G5       0.211900
     18 CAO         -6.9440     1.0450     2.1660 ca         1 3G5      -0.069900
     19 CAV         -4.9420     0.0680     1.2820 ca         1 3G5      -0.229600
     20 H1          -0.5420    -0.0020    -0.9380 ha         1 3G5       0.123000
     21 H2           1.9180    -0.0040    -0.9380 ha         1 3G5       0.158500
     22 H4           1.9200     0.0130     3.3590 ha         1 3G5       0.158500
     23 H5          -0.5390     0.0170     3.3610 ha         1 3G5       0.123000
     24 H6          -6.6670     2.6260     3.5860 ha         1 3G5       0.157000
     25 H7          -6.9330    -0.5440     0.7350 ha         1 3G5       0.170000
     26 H8          -2.4400    -2.6210    -0.2290 ho         1 3G5       0.417000
     27 CAN          3.5520     0.0010     1.2080 c          1 3G5       0.876200
     28 OAB         -4.8740    -1.6750    -0.2960 o          1 3G5      -0.562100
     29 BrE         -8.8310     1.1340     2.2490 br         1 3G5      -0.094100
     30 OAD         -2.1310    -1.7420    -0.3760 oh         1 3G5      -0.465100
@<TRIPOS>BOND
     1    29    18 1
     2    14    18 ar
     3    14    12 ar
     4    18    16 ar
     5    13    12 1
     6    12     9 ar
     7    16    19 ar
     8     9    19 ar
     9     9    10 1
    10    19    11 1
    11    10    17 1
    12    11    28 2
    13    11     8 1
    14    17     8 2
    15    17     3 1
    16     8    30 1
    17     7     3 ar
    18     7     6 ar
    19     3     1 ar
    20     6    15 ar
    21     1     2 ar
    22    15     2 ar
    23    15    27 1
    24     5    27 1
    25    27     4 1
    26     1    20 1
    27     2    21 1
    28     6    22 1
    29     7    23 1
    30    14    24 1
    31    16    25 1
    32    30    26 1
@<TRIPOS>SUBSTRUCTURE
     1 3G5         1 TEMP              0 ****  ****    0 ROOT
