@<TRIPOS>MOLECULE
molecule
   56    59     1     0     0
SMALL
bcc


@<TRIPOS>ATOM
      1 CAY          0.0000     0.0000     0.0000 c3         1 3G6      -0.065000
      2 CAX          1.9000    -1.3270     3.5720 c3         1 3G6      -0.031800
      3 CAW          1.5520     0.0000     0.0000 c3         1 3G6      -0.070700
      4 CAV         -0.3500     0.3510    -1.4430 c3         1 3G6      -0.029700
      5 CAU          1.5230    -1.3150     2.0850 c3         1 3G6      -0.046700
      6 CAT          2.0000     0.0000     1.4500 c3         1 3G6      -0.066700
      7 CAS         -1.6590     1.1420    -1.4920 c3         1 3G6      -0.177700
      8 CAR          3.3640    -1.0500     3.7270 c2         1 3G6      -0.020400
      9 CAQ         -1.9160     1.5990    -2.9060 c          1 3G6       0.893600
     10 CAP          3.6360    -2.8990     5.2730 c          1 3G6       0.575300
     11 CAO         -0.4470    -1.3640     0.4900 c3         1 3G6      -0.062400
     12 OAD          4.3510    -3.7900     5.6840 o          1 3G6      -0.544100
     13 CAM          0.0130    -1.4930     1.9510 c3         1 3G6      -0.083400
     14 CAL          1.8630     1.2730    -0.7940 c3         1 3G6      -0.090400
     15 CAH          2.1410    -2.8940     5.5300 c3         1 3G6      -0.181400
     16 CAG          4.1720    -1.7720     4.5040 ce         1 3G6      -0.286200
     17 CAA         -2.8110     0.2510    -1.0270 c3         1 3G6      -0.073100
     18 CAC         -0.5190     1.0870     0.9430 c3         1 3G6      -0.103100
     19 OAE         -3.0150     2.3160    -3.1900 o          1 3G6      -0.851300
     20 OAF         -1.1330     1.3210    -3.7830 o          1 3G6      -0.851300
     21 CAK          0.8250     1.2260    -1.9480 c3         1 3G6      -0.052400
     22 CAJ          3.5290     0.0620     1.5200 c3         1 3G6      -0.075400
     23 CAI          3.9640     0.1310     2.9850 c3         1 3G6      -0.054200
     24 CAN          1.4480    -2.6360     4.1930 c3         1 3G6      -0.064400
     25 CAB          1.1420    -0.1900     4.2600 c3         1 3G6      -0.087100
     26 H1           1.9310    -0.8740    -0.5170 hc         1 3G6       0.052700
     27 H2          -0.4270    -0.5500    -2.0380 hc         1 3G6       0.058700
     28 H3           2.0180    -2.1420     1.5910 hc         1 3G6       0.051700
     29 H4           1.5690     0.8450     1.9740 hc         1 3G6       0.069700
     30 H5          -1.5840     2.0050    -0.8420 hc         1 3G6       0.048700
     31 H6           0.0120    -2.1390    -0.1100 hc         1 3G6       0.046700
     32 H7          -1.5270    -1.4380     0.4370 hc         1 3G6       0.046700
     33 H8          -0.4850    -0.7370     2.5450 hc         1 3G6       0.037200
     34 H9          -0.2590    -2.4750     2.3190 hc         1 3G6       0.037200
     35 H10          2.8730     1.2410    -1.1870 hc         1 3G6       0.029200
     36 H11          1.7110     2.1520    -0.1800 hc         1 3G6       0.029200
     37 H12          1.8330    -3.8550     5.9230 hc         1 3G6       0.064200
     38 H13          1.8920    -2.1060     6.2300 hc         1 3G6       0.064200
     39 H14          5.2230    -1.5200     4.5730 ha         1 3G6       0.145000
     40 H15         -2.5410    -0.7890    -1.1620 hc         1 3G6       0.021367
     41 H16         -3.0130     0.4390     0.0200 hc         1 3G6       0.021367
     42 H17         -3.6970     0.4720    -1.6100 hc         1 3G6       0.021367
     43 H18         -0.8780     1.9280     0.3630 hc         1 3G6       0.038367
     44 H19         -1.3290     0.6890     1.5420 hc         1 3G6       0.038367
     45 H20          0.2840     1.4140     1.5930 hc         1 3G6       0.038367
     46 H22          1.2700     0.7760    -2.8280 hc         1 3G6       0.059200
     47 H23          0.4740     2.2260    -2.1710 hc         1 3G6       0.059200
     48 H24          3.8780     0.9450     0.9980 hc         1 3G6       0.047700
     49 H25          3.9470    -0.8250     1.0600 hc         1 3G6       0.047700
     50 H26          5.0450     0.0840     3.0450 hc         1 3G6       0.050200
     51 H27          3.6090     1.0540     3.4260 hc         1 3G6       0.050200
     52 H28          1.6810    -3.4470     3.5130 hc         1 3G6       0.052700
     53 H29          0.3770    -2.5990     4.3530 hc         1 3G6       0.052700
     54 H30          0.0800    -0.4010     4.2420 hc         1 3G6       0.040033
     55 H31          1.3350     0.7400     3.7380 hc         1 3G6       0.040033
     56 H32          1.4760    -0.1030     5.2870 hc         1 3G6       0.040033
@<TRIPOS>BOND
     1    20     9 1
     2    14    21 1
     3    14     3 1
     4    21     4 1
     5     9    19 1
     6     9     7 1
     7    22    23 1
     8    22     6 1
     9    23     8 1
    10     3     6 1
    11     3     1 1
    12     4     7 1
    13     4     1 1
    14    18     1 1
    15     7    17 1
    16     6     5 1
    17     1    11 1
    18     8    16 2
    19     8     2 1
    20     5     2 1
    21     5    13 1
    22    16    10 1
    23    11    13 1
    24    25     2 1
    25     2    24 1
    26    10    12 2
    27    10    15 1
    28    24    15 1
    29     3    26 1
    30     4    27 1
    31     5    28 1
    32     6    29 1
    33     7    30 1
    34    11    31 1
    35    11    32 1
    36    13    33 1
    37    13    34 1
    38    14    35 1
    39    14    36 1
    40    15    37 1
    41    15    38 1
    42    16    39 1
    43    17    40 1
    44    17    41 1
    45    17    42 1
    46    18    43 1
    47    18    44 1
    48    18    45 1
    49    21    46 1
    50    21    47 1
    51    22    48 1
    52    22    49 1
    53    23    50 1
    54    23    51 1
    55    24    52 1
    56    24    53 1
    57    25    54 1
    58    25    55 1
    59    25    56 1
@<TRIPOS>SUBSTRUCTURE
     1 3G6         1 TEMP              0 ****  ****    0 ROOT
