@<TRIPOS>MOLECULE
3G6
   56    59     1     0     0
SMALL
bcc


@<TRIPOS>ATOM
      1 CAY        -0.1460    0.2130    0.1400 c3        1 3G6     -0.050000
      2 CAX         1.9710   -1.3070    3.6810 c3        1 3G6     -0.019800
      3 CAW         1.4030    0.1780    0.1590 c3        1 3G6     -0.069700
      4 CAV        -0.4200    0.4060   -1.3730 c3        1 3G6     -0.027700
      5 CAU         1.4570   -1.1600    2.2310 c3        1 3G6     -0.045700
      6 CAT         1.9520    0.1340    1.5690 c3        1 3G6     -0.049700
      7 CAS        -1.7640    0.9830   -1.7810 c3        1 3G6     -0.190700
      8 CAR         3.4670   -1.1070    3.7150 c2        1 3G6     -0.005400
      9 CAQ        -1.7350    1.2570   -3.3140 c         1 3G6      0.913600
     10 CAP         3.8390   -3.0150    5.2510 c         1 3G6      0.575300
     11 CAO        -0.6130   -1.1040    0.7400 c3        1 3G6     -0.064400
     12 OAD         4.6240   -3.7940    5.8110 o         1 3G6     -0.557100
     13 CAM        -0.0600   -1.2940    2.1440 c3        1 3G6     -0.072400
     14 CAL         1.8120    1.3120   -0.7680 c3        1 3G6     -0.071400
     15 CAH         2.3510   -3.1330    5.4200 c3        1 3G6     -0.181400
     16 CAG         4.2960   -1.8990    4.4200 ce        1 3G6     -0.287200
     17 CAA        -2.9180    0.0630   -1.4690 c3        1 3G6     -0.063100
     18 CAC        -0.7220    1.3830    0.9190 c3        1 3G6     -0.077100
     19 OAE        -1.6920    2.4650   -3.6830 o         1 3G6     -0.844300
     20 OAF        -1.7540    0.2710   -4.1030 o         1 3G6     -0.844300
     21 CAK         0.7290    1.3210   -1.8480 c3        1 3G6     -0.084400
     22 CAJ         3.4710    0.1590    1.5640 c3        1 3G6     -0.073400
     23 CAI         4.0100    0.0680    2.9750 c3        1 3G6     -0.056200
     24 CAN         1.6150   -2.7200    4.1670 c3        1 3G6     -0.070400
     25 CAB         1.3350   -0.2820    4.6160 c3        1 3G6     -0.084100
     26 H1          1.7190   -0.7820   -0.3470 hc        1 3G6      0.043700
     27 H2         -0.3190   -0.5960   -1.8740 hc        1 3G6      0.054700
     28 H3          1.9020   -2.0160    1.6430 hc        1 3G6      0.048700
     29 H4          1.5840    1.0250    2.1470 hc        1 3G6      0.053700
     30 H5         -1.9230    1.9700   -1.2690 hc        1 3G6      0.037700
     31 H6         -0.2800   -1.9500    0.0840 hc        1 3G6      0.044700
     32 H7         -1.7320   -1.1330    0.7830 hc        1 3G6      0.044700
     33 H8         -0.3550   -2.3160    2.5020 hc        1 3G6      0.031700
     34 H9         -0.5430   -0.5470    2.8280 hc        1 3G6      0.031700
     35 H10         2.8260    1.1360   -1.2020 hc        1 3G6      0.024700
     36 H11         1.8410    2.2860   -0.2200 hc        1 3G6      0.024700
     37 H12         2.0810   -4.1870    5.6910 hc        1 3G6      0.065700
     38 H13         2.0520   -2.4750    6.2810 hc        1 3G6      0.065700
     39 H14         5.3870   -1.7350    4.4120 ha        1 3G6      0.142000
     40 H15        -2.7510   -0.9360   -1.9390 hc        1 3G6      0.015367
     41 H16        -3.0550   -0.0690   -0.3680 hc        1 3G6      0.015367
     42 H17        -3.8610    0.4910   -1.8900 hc        1 3G6      0.015367
     43 H18        -1.8380    1.3450    0.8810 hc        1 3G6      0.030033
     44 H19        -0.4100    1.3660    1.9910 hc        1 3G6      0.030033
     45 H20        -0.3830    2.3470    0.4670 hc        1 3G6      0.030033
     46 H22         0.3450    2.3570   -2.0290 hc        1 3G6      0.065700
     47 H23         1.1270    0.9430   -2.8210 hc        1 3G6      0.065700
     48 H24         3.8260    1.1090    1.0860 hc        1 3G6      0.048700
     49 H25         3.8630   -0.6930    0.9500 hc        1 3G6      0.048700
     50 H26         3.7200    0.9950    3.5450 hc        1 3G6      0.050200
     51 H27         5.1310    0.0300    2.9450 hc        1 3G6      0.050200
     52 H28         0.5120   -2.7710    4.3650 hc        1 3G6      0.051700
     53 H29         1.8440   -3.4560    3.3500 hc        1 3G6      0.051700
     54 H30         1.8350   -0.3090    5.6150 hc        1 3G6      0.039033
     55 H31         1.4340    0.7480    4.1970 hc        1 3G6      0.039033
     56 H32         0.2510   -0.5060    4.7600 hc        1 3G6      0.039033
@<TRIPOS>BOND
     1    1    3 1   
     2    1    4 1   
     3    1   11 1   
     4    1   18 1   
     5    2    5 1   
     6    2    8 1   
     7    2   24 1   
     8    2   25 1   
     9    3    6 1   
    10    3   14 1   
    11    3   26 1   
    12    4    7 1   
    13    4   21 1   
    14    4   27 1   
    15    5    6 1   
    16    5   13 1   
    17    5   28 1   
    18    6   22 1   
    19    6   29 1   
    20    7    9 1   
    21    7   17 1   
    22    7   30 1   
    23    8   16 2   
    24    8   23 1   
    25    9   19 1   
    26    9   20 1   
    27   10   12 2   
    28   10   15 1   
    29   10   16 1   
    30   11   13 1   
    31   11   31 1   
    32   11   32 1   
    33   13   33 1   
    34   13   34 1   
    35   14   21 1   
    36   14   35 1   
    37   14   36 1   
    38   15   24 1   
    39   15   37 1   
    40   15   38 1   
    41   16   39 1   
    42   17   40 1   
    43   17   41 1   
    44   17   42 1   
    45   18   43 1   
    46   18   44 1   
    47   18   45 1   
    48   21   46 1   
    49   21   47 1   
    50   22   23 1   
    51   22   48 1   
    52   22   49 1   
    53   23   50 1   
    54   23   51 1   
    55   24   52 1   
    56   24   53 1   
    57   25   54 1   
    58   25   55 1   
    59   25   56 1   
@<TRIPOS>SUBSTRUCTURE
     1 3G6         1 TEMP              0 ****  ****    0 ROOT
