@<TRIPOS>MOLECULE
molecule
   63    66     1     0     0
SMALL
bcc


@<TRIPOS>ATOM
      1 N1           0.0000     0.0000     0.0000 n          1 3G7      -0.501800
      2 C2           2.9440    -1.5140     5.9810 ca         1 3G7      -0.209600
      3 C4           1.4160    -2.2590     4.2940 ca         1 3G7      -0.186000
      4 C5           1.8730    -1.2510     3.4480 ca         1 3G7       0.134600
      5 C6           2.8700    -0.3760     3.8750 ca         1 3G7      -0.186000
      6 C7           3.4020    -0.5030     5.1260 ca         1 3G7      -0.052000
      7 C10          1.4710     0.0000     0.0000 c3         1 3G7       0.105500
      8 C16         -1.0400     4.1890    -4.2240 c3         1 3G7      -0.159700
      9 C17         -0.2530     3.9030    -2.9320 c3         1 3G7       0.152800
     10 C18         -1.6130     5.5830    -4.1900 c          1 3G7       0.671100
     11 C20         -2.3260     8.3360    -4.4880 ca         1 3G7      -0.115000
     12 C21         -2.9280     9.5780    -4.4220 ca         1 3G7      -0.132000
     13 C23         -4.7890     8.7440    -5.6960 ca         1 3G7       0.020400
     14 C22         -4.1600     9.7850    -5.0250 ca         1 3G7       0.096100
     15 O3          -4.7520    11.0080    -4.9590 oh         1 3G7      -0.509100
     16 C24         -4.1900     7.5010    -5.7570 ca         1 3G7      -0.145000
     17 C19         -2.9540     7.2940    -5.1580 ca         1 3G7       0.054600
     18 O2          -1.4170     6.2960    -3.2290 o          1 3G7      -0.586100
     19 C15         -2.1760     3.1410    -4.2440 c3         1 3G7      -0.078400
     20 C14         -1.6330     2.0230    -3.3190 c3         1 3G7       0.143800
     21 N2          -0.9290     2.7770    -2.2510 n3         1 3G7      -0.673600
     22 C12         -0.6910     0.8980    -0.7300 c          1 3G7       0.663100
     23 O1          -1.9040     0.8800    -0.7230 o          1 3G7      -0.586100
     24 C9          -0.6960    -1.0100     0.8110 c3         1 3G7       0.105500
     25 C8          -0.1250    -0.9700     2.2330 c3         1 3G7       0.145800
     26 C11          1.9570     0.0000     1.4540 c3         1 3G7       0.145800
     27 N            1.3350    -1.1190     2.1740 nh         1 3G7      -0.596000
     28 C3           1.9420    -2.3920     5.5470 ca         1 3G7      -0.052000
     29 O            3.1240    -2.5370     8.0610 o          1 3G7      -0.533100
     30 C            4.5950    -0.7130     7.7880 c3         1 3G7      -0.191100
     31 H2           0.6410    -2.9370     3.9580 ha         1 3G7       0.139500
     32 H3           3.2230     0.4060     3.2140 ha         1 3G7       0.139500
     33 H4           4.1770     0.1780     5.4580 ha         1 3G7       0.145000
     34 H5           1.8340    -0.8870    -0.5040 h1         1 3G7       0.063950
     35 H6           1.8340     0.8870    -0.5040 h1         1 3G7       0.063950
     36 H7          -0.3990     4.0610    -5.0870 hc         1 3G7       0.066700
     37 H8          -0.2620     4.7790    -2.2940 h1         1 3G7       0.061200
     38 H9           0.7660     3.6280    -3.1750 h1         1 3G7       0.061200
     39 H10         -1.3640     8.1750    -4.0170 ha         1 3G7       0.171000
     40 H11         -2.4380    10.3900    -3.8990 ha         1 3G7       0.150000
     41 H12         -4.4140    11.5580    -5.6460 ho         1 3G7       0.420000
     42 H13         -4.6760     6.6910    -6.2880 ha         1 3G7       0.146000
     43 H14         -2.3300     2.7640    -5.2480 hc         1 3G7       0.059700
     44 H15         -3.0900     3.5600    -3.8400 hc         1 3G7       0.059700
     45 H16         -0.9390     1.3880    -3.8560 h1         1 3G7       0.056700
     46 H17         -2.4480     1.4440    -2.9020 h1         1 3G7       0.056700
     47 H21         -1.7560    -0.7860     0.8390 h1         1 3G7       0.063950
     48 H22         -0.5360    -1.9920     0.3830 h1         1 3G7       0.063950
     49 H23         -0.3720    -0.0210     2.6930 h1         1 3G7       0.054700
     50 H24         -0.5480    -1.7800     2.8140 h1         1 3G7       0.054700
     51 H25          1.6770     0.9330     1.9270 h1         1 3G7       0.054700
     52 H26          3.0340    -0.1130     1.4740 h1         1 3G7       0.054700
     53 H27          1.5850    -3.1760     6.2040 ha         1 3G7       0.145000
     54 H28          5.4440    -0.8050     7.1220 hc         1 3G7       0.060033
     55 H29          4.2100     0.2990     7.7440 hc         1 3G7       0.060033
     56 H30          4.9060    -0.9370     8.8020 hc         1 3G7       0.060033
     57 C1           3.5170    -1.6580     7.3240 c          1 3G7       0.578700
     58 C13          0.0430     1.9240    -1.5550 c3         1 3G7       0.081800
     59 N3          -2.3420     6.0370    -5.2290 ns         1 3G7      -0.477100
     60 Cl          -6.3330     9.0020    -6.4450 cl         1 3G7      -0.091400
     61 H1          -2.4130     5.4930    -6.0660 hn         1 3G7       0.326500
     62 H19          0.6690     1.4220    -2.2820 h1         1 3G7       0.052200
     63 H20          0.6600     2.5340    -0.9070 h1         1 3G7       0.052200
@<TRIPOS>BOND
     1    15    14 1   
     2    29    57 2   
     3    23    22 2   
     4     6     5 ar  
     5     6     2 ar  
     6    26     7 1   
     7    26    27 1   
     8     5     4 ar  
     9    12    14 ar  
    10    12    11 ar  
    11     7     1 1   
    12    14    13 ar  
    13    11    17 ar  
    14    13    60 1   
    15    13    16 ar  
    16    57     2 1   
    17    57    30 1   
    18    22     1 1   
    19    22    58 1   
    20     2    28 ar  
    21    17    16 ar  
    22    17    59 1   
    23     1    24 1   
    24     4    27 1   
    25     4     3 ar  
    26    27    25 1   
    27    20    19 1   
    28    20    21 1   
    29    59    10 1   
    30    19     8 1   
    31    18    10 2   
    32    21    58 1   
    33    21     9 1   
    34    10     8 1   
    35    28     3 ar  
    36    24    25 1   
    37     8     9 1   
    38    59    61 1   
    39     3    31 1   
    40     5    32 1   
    41     6    33 1   
    42     7    34 1   
    43     7    35 1   
    44     8    36 1   
    45     9    37 1   
    46     9    38 1   
    47    11    39 1   
    48    12    40 1   
    49    15    41 1   
    50    16    42 1   
    51    19    43 1   
    52    19    44 1   
    53    20    45 1   
    54    20    46 1   
    55    58    62 1   
    56    58    63 1   
    57    24    47 1   
    58    24    48 1   
    59    25    49 1   
    60    25    50 1   
    61    26    51 1   
    62    26    52 1   
    63    28    53 1   
    64    30    54 1   
    65    30    55 1   
    66    30    56 1   
@<TRIPOS>SUBSTRUCTURE
     1 3G7         1 TEMP              0 ****  ****    0 ROOT
