@<TRIPOS>MOLECULE
3G7
   63    66     1     0     0
SMALL
bcc


@<TRIPOS>ATOM
      1 N1           0.0000     0.0000     0.0000 n          1 3G7      -0.169800
      2 C2           2.9440    -1.5140     5.9810 ca         1 3G7      -0.218600
      3 C4           1.4160    -2.2590     4.2940 ca         1 3G7      -0.169000
      4 C5           1.8730    -1.2510     3.4480 ca         1 3G7       0.050600
      5 C6           2.8700    -0.3760     3.8750 ca         1 3G7      -0.169000
      6 C7           3.4020    -0.5030     5.1260 ca         1 3G7      -0.018500
      7 C10          1.4710     0.0000     0.0000 c3         1 3G7       0.050500
      8 C16         -1.0400     4.1890    -4.2240 c3         1 3G7      -0.133700
      9 C17         -0.2530     3.9030    -2.9320 c3         1 3G7       0.140800
     10 C18         -1.6130     5.5830    -4.1900 c          1 3G7       0.572100
     11 C20         -2.3260     8.3360    -4.4880 ca         1 3G7      -0.085000
     12 C21         -2.9280     9.5780    -4.4220 ca         1 3G7      -0.114000
     13 C23         -4.7890     8.7440    -5.6960 ca         1 3G7      -0.056600
     14 C22         -4.1600     9.7850    -5.0250 ca         1 3G7       0.117100
     15 O3          -4.7520    11.0080    -4.9590 oh         1 3G7      -0.490100
     16 C24         -4.1900     7.5010    -5.7570 ca         1 3G7      -0.112000
     17 C19         -2.9540     7.2940    -5.1580 ca         1 3G7      -0.098400
     18 O2          -1.4170     6.2960    -3.2290 o          1 3G7      -0.624100
     19 C15         -2.1760     3.1410    -4.2440 c3         1 3G7      -0.019400
     20 C14         -1.6330     2.0230    -3.3190 c3         1 3G7       0.140800
     21 N2          -0.9290     2.7770    -2.2510 n3         1 3G7      -0.501600
     22 C12         -0.6910     0.8980    -0.7300 c          1 3G7       0.587100
     23 O1          -1.9040     0.8800    -0.7230 o          1 3G7      -0.624100
     24 C9          -0.6960    -1.0100     0.8110 c3         1 3G7       0.050500
     25 C8          -0.1250    -0.9700     2.2330 c3         1 3G7       0.116800
     26 C11          1.9570     0.0000     1.4540 c3         1 3G7       0.116800
     27 N            1.3350    -1.1190     2.1740 nh         1 3G7      -0.354000
     28 C3           1.9420    -2.3920     5.5470 ca         1 3G7      -0.018500
     29 O            3.1240    -2.5370     8.0610 o          1 3G7      -0.564100
     30 C            4.5950    -0.7130     7.7880 c3         1 3G7      -0.091100
     31 H2           0.6410    -2.9370     3.9580 ha         1 3G7       0.121500
     32 H3           3.2230     0.4060     3.2140 ha         1 3G7       0.121500
     33 H4           4.1770     0.1780     5.4580 ha         1 3G7       0.115500
     34 H5           1.8340    -0.8870    -0.5040 h1         1 3G7       0.035950
     35 H6           1.8340     0.8870    -0.5040 h1         1 3G7       0.035950
     36 H7          -0.3990     4.0610    -5.0870 hc         1 3G7       0.036700
     37 H8          -0.2620     4.7790    -2.2940 h1         1 3G7       0.032700
     38 H9           0.7660     3.6280    -3.1750 h1         1 3G7       0.032700
     39 H10         -1.3640     8.1750    -4.0170 ha         1 3G7       0.147000
     40 H11         -2.4380    10.3900    -3.8990 ha         1 3G7       0.118000
     41 H12         -4.4140    11.5580    -5.6460 ho         1 3G7       0.403000
     42 H13         -4.6760     6.6910    -6.2880 ha         1 3G7       0.117000
     43 H14         -2.3300     2.7640    -5.2480 hc         1 3G7       0.026200
     44 H15         -3.0900     3.5600    -3.8400 hc         1 3G7       0.026200
     45 H16         -0.9390     1.3880    -3.8560 h1         1 3G7       0.027700
     46 H17         -2.4480     1.4440    -2.9020 h1         1 3G7       0.027700
     47 H21         -1.7560    -0.7860     0.8390 h1         1 3G7       0.035950
     48 H22         -0.5360    -1.9920     0.3830 h1         1 3G7       0.035950
     49 H23         -0.3720    -0.0210     2.6930 h1         1 3G7       0.029450
     50 H24         -0.5480    -1.7800     2.8140 h1         1 3G7       0.029450
     51 H25          1.6770     0.9330     1.9270 h1         1 3G7       0.029450
     52 H26          3.0340    -0.1130     1.4740 h1         1 3G7       0.029450
     53 H27          1.5850    -3.1760     6.2040 ha         1 3G7       0.115500
     54 H28          5.4440    -0.8050     7.1220 hc         1 3G7       0.025033
     55 H29          4.2100     0.2990     7.7440 hc         1 3G7       0.025033
     56 H30          4.9060    -0.9370     8.8020 hc         1 3G7       0.025033
     57 C1           3.5170    -1.6580     7.3240 c          1 3G7       0.627700
     58 C13          0.0430     1.9240    -1.5550 c3         1 3G7       0.081800
     59 N3          -2.3420     6.0370    -5.2290 ns         1 3G7      -0.032100
     60 Cl          -6.3330     9.0020    -6.4450 cl         1 3G7      -0.008400
     61 H1          -2.4130     5.4930    -6.0660 hn         1 3G7       0.168500
     62 H19          0.6690     1.4220    -2.2820 h1         1 3G7       0.023700
     63 H20          0.6600     2.5340    -0.9070 h1         1 3G7       0.023700
@<TRIPOS>BOND
     1     1     7 1   
     2     1    22 1   
     3     1    24 1   
     4     2     6 ar  
     5     2    28 ar  
     6     2    57 1   
     7     3     4 ar  
     8     3    28 ar  
     9     3    31 1   
    10     4     5 ar  
    11     4    27 1   
    12     5     6 ar  
    13     5    32 1   
    14     6    33 1   
    15     7    26 1   
    16     7    34 1   
    17     7    35 1   
    18     8     9 1   
    19     8    10 1   
    20     8    19 1   
    21     8    36 1   
    22     9    21 1   
    23     9    37 1   
    24     9    38 1   
    25    10    18 2   
    26    10    59 1   
    27    11    12 ar  
    28    11    17 ar  
    29    11    39 1   
    30    12    14 ar  
    31    12    40 1   
    32    13    14 ar  
    33    13    16 ar  
    34    13    60 1   
    35    14    15 1   
    36    15    41 1   
    37    16    17 ar  
    38    16    42 1   
    39    17    59 1   
    40    19    20 1   
    41    19    43 1   
    42    19    44 1   
    43    20    21 1   
    44    20    45 1   
    45    20    46 1   
    46    21    58 1   
    47    22    23 2   
    48    22    58 1   
    49    24    25 1   
    50    24    47 1   
    51    24    48 1   
    52    25    27 1   
    53    25    49 1   
    54    25    50 1   
    55    26    27 1   
    56    26    51 1   
    57    26    52 1   
    58    28    53 1   
    59    29    57 2   
    60    30    54 1   
    61    30    55 1   
    62    30    56 1   
    63    30    57 1   
    64    58    62 1   
    65    58    63 1   
    66    59    61 1   
@<TRIPOS>SUBSTRUCTURE
     1 3G7         1 TEMP              0 ****  ****    0 ROOT
