@<TRIPOS>MOLECULE
molecule
   40    42     1     0     0
SMALL
bcc


@<TRIPOS>ATOM
      1 CAA          0.0000     0.0000     0.0000 c3         1 3G8      -0.121100
      2 CAL          1.5300     0.0000     0.0000 c3         1 3G8       0.226800
      3 NAW          2.0190     0.0000     1.3810 nh         1 3G8      -0.714000
      4 CAM          2.2620    -1.2690     2.0710 c3         1 3G8       0.226800
      5 CAB          3.7070    -1.7110     1.8310 c3         1 3G8      -0.121100
      6 CAQ          2.2510     1.2030     2.0360 ca         1 3G8       0.259600
      7 CAJ          2.7140     1.1970     3.3450 ca         1 3G8      -0.245000
      8 CAH          2.0220     2.4100     1.3710 ca         1 3G8      -0.235000
      9 CAI          2.2570     3.5970     1.9950 ca         1 3G8      -0.017000
     10 CAU          2.7430     3.6110     3.3130 ca         1 3G8      -0.229800
     11 CAK          3.0260     4.8380     3.9600 cc         1 3G8       0.045800
     12 CAV          2.9500     2.3950     3.9970 ca         1 3G8       0.216100
     13 OAN          3.3560     2.3990     5.2900 os         1 3G8      -0.313200
     14 CAT          4.0840     3.4670     5.6870 c          1 3G8       0.750800
     15 OAD          5.0300     3.3360     6.4400 o          1 3G8      -0.547500
     16 CAS          3.6890     4.7930     5.1820 cd         1 3G8      -0.338400
     17 CAP          3.9950     6.0210     5.9340 c          1 3G8       0.647900
     18 OAC          4.7800     6.8340     5.4790 o          1 3G8      -0.511100
     19 CAR          3.3540     6.2670     7.2280 cd         1 3G8      -0.141700
     20 SAO          2.2980     5.1430     8.0730 ss         1 3G8      -0.053800
     21 CAF          2.0850     6.2390     9.3630 cd         1 3G8      -0.093100
     22 CAE          2.7720     7.3680     9.1500 cc         1 3G8      -0.177000
     23 CAG          3.4860     7.4040     7.9770 cc         1 3G8      -0.080000
     24 H1          -0.3610    -0.9910    -0.2480 hc         1 3G8       0.044867
     25 H2          -0.3610     0.2810     0.9820 hc         1 3G8       0.044867
     26 H3          -0.3610     0.7100    -0.7340 hc         1 3G8       0.044867
     27 H4           1.8910     0.8840    -0.5110 h1         1 3G8       0.054700
     28 H5           1.8910    -0.8840    -0.5110 h1         1 3G8       0.054700
     29 H6           1.5860    -2.0240     1.6880 h1         1 3G8       0.054700
     30 H7           2.0960    -1.1400     3.1330 h1         1 3G8       0.054700
     31 H8           4.2840    -0.8720     1.4600 hc         1 3G8       0.044867
     32 H9           4.1370    -2.0620     2.7610 hc         1 3G8       0.044867
     33 H10          3.7240    -2.5110     1.1010 hc         1 3G8       0.044867
     34 H11          2.8160     0.2600     3.8790 ha         1 3G8       0.157000
     35 H12          1.6560     2.4020     0.3520 ha         1 3G8       0.141000
     36 H13          2.0770     4.5290     1.4740 ha         1 3G8       0.139000
     37 H14          2.7080     5.7810     3.5320 ha         1 3G8       0.151000
     38 H15          1.4740     6.0470    10.2370 h4         1 3G8       0.172000
     39 H16          2.7700     8.1910     9.8550 ha         1 3G8       0.150000
     40 H17          4.0890     8.2510     7.6720 ha         1 3G8       0.167000
@<TRIPOS>BOND
     1     1     2 1   
     2     2     3 1   
     3     3     4 1   
     4     3     6 1   
     5     4     5 1   
     6     8     6 ar  
     7     8     9 ar  
     8     6     7 ar  
     9     9    10 ar  
    10     7    12 ar  
    11    10    12 ar  
    12    10    11 1   
    13    12    13 1   
    14    11    16 2   
    15    13    14 1   
    16    16    14 1   
    17    16    17 1   
    18    14    15 2   
    19    23    22 1   
    20    23    19 2   
    21    22    21 2   
    22    19    17 1   
    23    19    20 1   
    24    17    18 2   
    25    21    20 1   
    26     1    24 1   
    27     1    25 1   
    28     1    26 1   
    29     2    27 1   
    30     2    28 1   
    31     4    29 1   
    32     4    30 1   
    33     5    31 1   
    34     5    32 1   
    35     5    33 1   
    36     7    34 1   
    37     8    35 1   
    38     9    36 1   
    39    11    37 1   
    40    21    38 1   
    41    22    39 1   
    42    23    40 1   
@<TRIPOS>SUBSTRUCTURE
     1 3G8         1 TEMP              0 ****  ****    0 ROOT
