@<TRIPOS>MOLECULE
3G8
   40    42     1     0     0
SMALL
bcc


@<TRIPOS>ATOM
      1 CAA          0.0000     0.0000     0.0000 c3         1 3G8      -0.024100
      2 CAL          1.5300     0.0000     0.0000 c3         1 3G8       0.161300
      3 NAW          2.0190     0.0000     1.3810 nh         1 3G8      -0.358000
      4 CAM          2.2620    -1.2690     2.0710 c3         1 3G8       0.161300
      5 CAB          3.7070    -1.7110     1.8310 c3         1 3G8      -0.024100
      6 CAQ          2.2510     1.2030     2.0360 ca         1 3G8       0.137600
      7 CAJ          2.7140     1.1970     3.3450 ca         1 3G8      -0.248000
      8 CAH          2.0220     2.4100     1.3710 ca         1 3G8      -0.231000
      9 CAI          2.2570     3.5970     1.9950 ca         1 3G8       0.027000
     10 CAU          2.7430     3.6110     3.3130 ca         1 3G8      -0.252800
     11 CAK          3.0260     4.8380     3.9600 cc         1 3G8       0.099800
     12 CAV          2.9500     2.3950     3.9970 ca         1 3G8       0.236100
     13 OAN          3.3560     2.3990     5.2900 os         1 3G8      -0.291200
     14 CAT          4.0840     3.4670     5.6870 c          1 3G8       0.816800
     15 OAD          5.0300     3.3360     6.4400 o          1 3G8      -0.598500
     16 CAS          3.6890     4.7930     5.1820 cd         1 3G8      -0.364400
     17 CAP          3.9950     6.0210     5.9340 c          1 3G8       0.716900
     18 OAC          4.7800     6.8340     5.4790 o          1 3G8      -0.550100
     19 CAR          3.3540     6.2670     7.2280 cc         1 3G8      -0.094700
     20 SAO          2.2980     5.1430     8.0730 ss         1 3G8      -0.201800
     21 CAF          2.0850     6.2390     9.3630 cc         1 3G8      -0.001100
     22 CAE          2.7720     7.3680     9.1500 cd         1 3G8      -0.150000
     23 CAG          3.4860     7.4040     7.9770 cd         1 3G8      -0.045000
     24 H1          -0.3610    -0.9910    -0.2480 hc         1 3G8       0.011700
     25 H2          -0.3610     0.2810     0.9820 hc         1 3G8       0.011700
     26 H3          -0.3610     0.7100    -0.7340 hc         1 3G8       0.011700
     27 H4           1.8910     0.8840    -0.5110 h1         1 3G8       0.028950
     28 H5           1.8910    -0.8840    -0.5110 h1         1 3G8       0.028950
     29 H6           1.5860    -2.0240     1.6880 h1         1 3G8       0.028950
     30 H7           2.0960    -1.1400     3.1330 h1         1 3G8       0.028950
     31 H8           4.2840    -0.8720     1.4600 hc         1 3G8       0.011700
     32 H9           4.1370    -2.0620     2.7610 hc         1 3G8       0.011700
     33 H10          3.7240    -2.5110     1.1010 hc         1 3G8       0.011700
     34 H11          2.8160     0.2600     3.8790 ha         1 3G8       0.141000
     35 H12          1.6560     2.4020     0.3520 ha         1 3G8       0.125000
     36 H13          2.0770     4.5290     1.4740 ha         1 3G8       0.104000
     37 H14          2.7080     5.7810     3.5320 ha         1 3G8       0.112000
     38 H15          1.4740     6.0470    10.2370 h4         1 3G8       0.149000
     39 H16          2.7700     8.1910     9.8550 ha         1 3G8       0.123000
     40 H17          4.0890     8.2510     7.6720 ha         1 3G8       0.135000
@<TRIPOS>BOND
     1     1     2 1   
     2     1    24 1   
     3     1    25 1   
     4     1    26 1   
     5     2     3 1   
     6     2    27 1   
     7     2    28 1   
     8     3     4 1   
     9     3     6 1   
    10     4     5 1   
    11     4    29 1   
    12     4    30 1   
    13     5    31 1   
    14     5    32 1   
    15     5    33 1   
    16     6     7 ar  
    17     6     8 ar  
    18     7    12 ar  
    19     7    34 1   
    20     8     9 ar  
    21     8    35 1   
    22     9    10 ar  
    23     9    36 1   
    24    10    11 1   
    25    10    12 ar  
    26    11    16 2   
    27    11    37 1   
    28    12    13 1   
    29    13    14 1   
    30    14    15 2   
    31    14    16 1   
    32    16    17 1   
    33    17    18 2   
    34    17    19 1   
    35    19    20 1   
    36    19    23 2   
    37    20    21 1   
    38    21    22 2   
    39    21    38 1   
    40    22    23 1   
    41    22    39 1   
    42    23    40 1   
@<TRIPOS>SUBSTRUCTURE
     1 3G8         1 TEMP              0 ****  ****    0 ROOT
