@<TRIPOS>MOLECULE
3G9
   43    45     1     0     0
SMALL
bcc


@<TRIPOS>ATOM
      1 CAA          0.0000     0.0000     0.0000 c3         1 3G9      -0.092100
      2 CAQ          1.5070     0.0000     0.0000 c          1 3G9       0.627700
      3 OAB          2.1140     0.0000     1.0510 o          1 3G9      -0.565100
      4 CAT          2.2410     0.0000    -1.2710 ca         1 3G9      -0.219600
      5 CAI          3.6420     0.0010    -1.2740 ca         1 3G9      -0.018000
      6 CAK          4.3200    -0.0000    -2.4590 ca         1 3G9      -0.169000
      7 CAH          1.5420    -0.0050    -2.4860 ca         1 3G9      -0.018000
      8 CAJ          2.2280    -0.0060    -3.6660 ca         1 3G9      -0.169000
      9 CAV          3.6220    -0.0000    -3.6640 ca         1 3G9       0.050600
     10 NAX          4.3150     0.0000    -4.8670 nh         1 3G9      -0.355000
     11 CAP          5.7670     0.0060    -4.6370 c3         1 3G9       0.117800
     12 CAN          6.4930    -0.1770    -5.9740 c3         1 3G9       0.036500
     13 CAO          3.9050     1.1290    -5.7120 c3         1 3G9       0.117800
     14 CAM          4.5550     0.9920    -7.0930 c3         1 3G9       0.036500
     15 NAW          6.0070     0.8460    -6.9140 n          1 3G9      -0.153800
     16 CAR          6.8700     1.6280    -7.5910 c          1 3G9       0.613700
     17 OAC          8.0610     1.5670    -7.3540 o          1 3G9      -0.639100
     18 CAU          6.3690     2.5590    -8.6240 ca         1 3G9      -0.140600
     19 CAL          6.9340     3.8300    -8.7560 ca         1 3G9      -0.043000
     20 CAS          6.4610     4.6940    -9.7210 ca         1 3G9      -0.045600
     21 Cl1          7.1620     6.2740    -9.8880 cl         1 3G9      -0.015400
     22 CAF          5.4290     4.3040   -10.5590 ca         1 3G9      -0.080000
     23 CAE          4.8650     3.0480   -10.4330 ca         1 3G9      -0.098000
     24 CAG          5.3330     2.1720    -9.4750 ca         1 3G9      -0.097000
     25 H1          -0.3610    -0.8860    -0.5080 hc         1 3G9       0.025700
     26 H2          -0.3610     0.8830    -0.5140 hc         1 3G9       0.025700
     27 H3          -0.3610     0.0030     1.0210 hc         1 3G9       0.025700
     28 H4           4.1860     0.0010    -0.3370 ha         1 3G9       0.115500
     29 H5           5.4030     0.0020    -2.4610 ha         1 3G9       0.122000
     30 H6           0.4580    -0.0100    -2.4890 ha         1 3G9       0.115500
     31 H7           1.6890    -0.0080    -4.6060 ha         1 3G9       0.122000
     32 H8           6.0580     0.9510    -4.1950 h1         1 3G9       0.029700
     33 H9           6.0290    -0.8070    -3.9710 h1         1 3G9       0.029700
     34 H10          7.5600    -0.0580    -5.8270 h1         1 3G9       0.042450
     35 H11          6.2820    -1.1630    -6.3700 h1         1 3G9       0.042450
     36 H12          4.2250     2.0570    -5.2540 h1         1 3G9       0.029700
     37 H13          2.8270     1.1250    -5.8190 h1         1 3G9       0.029700
     38 H14          4.3490     1.8790    -7.6800 h1         1 3G9       0.042450
     39 H15          4.1610     0.1160    -7.5950 h1         1 3G9       0.042450
     40 H16          7.7930     4.1050    -8.1560 ha         1 3G9       0.134000
     41 H17          5.0600     4.9880   -11.3140 ha         1 3G9       0.115000
     42 H18          4.0590     2.7480   -11.0920 ha         1 3G9       0.109000
     43 H19          4.8900     1.1880    -9.3780 ha         1 3G9       0.118000
@<TRIPOS>BOND
     1     1     2 1   
     2     1    25 1   
     3     1    26 1   
     4     1    27 1   
     5     2     3 2   
     6     2     4 1   
     7     4     5 ar  
     8     4     7 ar  
     9     5     6 ar  
    10     5    28 1   
    11     6     9 ar  
    12     6    29 1   
    13     7     8 ar  
    14     7    30 1   
    15     8     9 ar  
    16     8    31 1   
    17     9    10 1   
    18    10    11 1   
    19    10    13 1   
    20    11    12 1   
    21    11    32 1   
    22    11    33 1   
    23    12    15 1   
    24    12    34 1   
    25    12    35 1   
    26    13    14 1   
    27    13    36 1   
    28    13    37 1   
    29    14    15 1   
    30    14    38 1   
    31    14    39 1   
    32    15    16 1   
    33    16    17 2   
    34    16    18 1   
    35    18    19 ar  
    36    18    24 ar  
    37    19    20 ar  
    38    19    40 1   
    39    20    21 1   
    40    20    22 ar  
    41    22    23 ar  
    42    22    41 1   
    43    23    24 ar  
    44    23    42 1   
    45    24    43 1   
@<TRIPOS>SUBSTRUCTURE
     1 3G9         1 TEMP              0 ****  ****    0 ROOT
