@<TRIPOS>MOLECULE
molecule
   43    45     1     0     0
SMALL
bcc


@<TRIPOS>ATOM
      1 CAA          0.0000     0.0000     0.0000 c3         1 3G9      -0.191100
      2 CAQ          1.5070     0.0000     0.0000 c          1 3G9       0.578700
      3 OAB          2.1140     0.0000     1.0510 o          1 3G9      -0.534100
      4 CAT          2.2410     0.0000    -1.2710 ca         1 3G9      -0.210600
      5 CAI          3.6420     0.0010    -1.2740 ca         1 3G9      -0.052000
      6 CAK          4.3200    -0.0000    -2.4590 ca         1 3G9      -0.186500
      7 CAH          1.5420    -0.0050    -2.4860 ca         1 3G9      -0.052000
      8 CAJ          2.2280    -0.0060    -3.6660 ca         1 3G9      -0.186500
      9 CAV          3.6220    -0.0000    -3.6640 ca         1 3G9       0.133600
     10 NAX          4.3150     0.0000    -4.8670 nh         1 3G9      -0.597000
     11 CAP          5.7670     0.0060    -4.6370 c3         1 3G9       0.146300
     12 CAN          6.4930    -0.1770    -5.9740 c3         1 3G9       0.100500
     13 CAO          3.9050     1.1290    -5.7120 c3         1 3G9       0.146300
     14 CAM          4.5550     0.9920    -7.0930 c3         1 3G9       0.100500
     15 NAW          6.0070     0.8460    -6.9140 n          1 3G9      -0.491800
     16 CAR          6.8700     1.6280    -7.5910 c          1 3G9       0.678700
     17 OAC          8.0610     1.5670    -7.3540 o          1 3G9      -0.598100
     18 CAU          6.3690     2.5590    -8.6240 ca         1 3G9      -0.134600
     19 CAL          6.9340     3.8300    -8.7560 ca         1 3G9      -0.071000
     20 CAS          6.4610     4.6940    -9.7210 ca         1 3G9       0.019400
     21 Cl1          7.1620     6.2740    -9.8880 cl         1 3G9      -0.098400
     22 CAF          5.4290     4.3040   -10.5590 ca         1 3G9      -0.103000
     23 CAE          4.8650     3.0480   -10.4330 ca         1 3G9      -0.130000
     24 CAG          5.3330     2.1720    -9.4750 ca         1 3G9      -0.113000
     25 H1          -0.3610    -0.8860    -0.5080 hc         1 3G9       0.060367
     26 H2          -0.3610     0.8830    -0.5140 hc         1 3G9       0.060367
     27 H3          -0.3610     0.0030     1.0210 hc         1 3G9       0.060367
     28 H4           4.1860     0.0010    -0.3370 ha         1 3G9       0.145000
     29 H5           5.4030     0.0020    -2.4610 ha         1 3G9       0.140500
     30 H6           0.4580    -0.0100    -2.4890 ha         1 3G9       0.145000
     31 H7           1.6890    -0.0080    -4.6060 ha         1 3G9       0.140500
     32 H8           6.0580     0.9510    -4.1950 h1         1 3G9       0.054700
     33 H9           6.0290    -0.8070    -3.9710 h1         1 3G9       0.054700
     34 H10          7.5600    -0.0580    -5.8270 h1         1 3G9       0.068700
     35 H11          6.2820    -1.1630    -6.3700 h1         1 3G9       0.068700
     36 H12          4.2250     2.0570    -5.2540 h1         1 3G9       0.054700
     37 H13          2.8270     1.1250    -5.8190 h1         1 3G9       0.054700
     38 H14          4.3490     1.8790    -7.6800 h1         1 3G9       0.068700
     39 H15          4.1610     0.1160    -7.5950 h1         1 3G9       0.068700
     40 H16          7.7930     4.1050    -8.1560 ha         1 3G9       0.166000
     41 H17          5.0600     4.9880   -11.3140 ha         1 3G9       0.147000
     42 H18          4.0590     2.7480   -11.0920 ha         1 3G9       0.141000
     43 H19          4.8900     1.1880    -9.3780 ha         1 3G9       0.142000
@<TRIPOS>BOND
     1    17    16 2
     2    22    23 ar
     3    22    20 ar
     4    21    20 1
     5    23    24 ar
     6    20    19 ar
     7    24    18 ar
     8    19    18 ar
     9    18    16 1
    10    16    15 1
    11    15    14 1
    12    15    12 1
    13    14    13 1
    14    13    10 1
    15    12    11 1
    16    11    10 1
    17    10     9 1
    18     9     8 ar
    19     9     6 ar
    20     8     7 ar
    21     6     5 ar
    22     7     4 ar
    23     5     4 ar
    24     4     2 1
    25     2     3 2
    26     2     1 1
    27     1    25 1
    28     1    26 1
    29     1    27 1
    30     5    28 1
    31     6    29 1
    32     7    30 1
    33     8    31 1
    34    11    32 1
    35    11    33 1
    36    12    34 1
    37    12    35 1
    38    13    36 1
    39    13    37 1
    40    14    38 1
    41    14    39 1
    42    19    40 1
    43    22    41 1
    44    23    42 1
    45    24    43 1
@<TRIPOS>SUBSTRUCTURE
     1 3G9         1 TEMP              0 ****  ****    0 ROOT
