@<TRIPOS>MOLECULE
3GC
   29    28     1     0     0
SMALL
bcc


@<TRIPOS>ATOM
      1 N1           0.0000     0.0000     0.0000 nz         1 3GC       0.079400
      2 CA1          1.4690     0.0000     0.0000 c3         1 3GC      -0.206500
      3 C1           1.9710     0.0000     1.4210 c          1 3GC       0.964600
      4 O11          3.1430    -0.5810     1.7170 o          1 3GC      -0.830800
      5 O12          1.3180     0.5230     2.2920 o          1 3GC      -0.830800
      6 CB1          1.9770     1.2480    -0.7220 c3         1 3GC      -0.009400
      7 CG1          1.4680     1.2480    -2.1640 c3         1 3GC      -0.123400
      8 CD1          1.9690     2.4780    -2.8750 c          1 3GC       0.563100
      9 OE1          2.6680     3.2760    -2.2870 o          1 3GC      -0.649100
     10 N2           1.6430     2.6910    -4.1650 ns         1 3GC      -0.108900
     11 CA2          2.1320     3.8860    -4.8570 c3         1 3GC      -0.083300
     12 C2           1.1380     5.0060    -4.6840 c          1 3GC       0.971600
     13 O2          -0.1670     4.7310    -4.5450 o          1 3GC      -0.876800
     14 CB2          2.3020     3.5810    -6.3450 c3         1 3GC       0.127700
     15 SG2          3.4960     2.2320    -6.5540 sh         1 3GC      -0.463900
     16 O3           1.5200     6.1530    -4.6690 o          1 3GC      -0.876800
     17 H11         -0.3340    -0.3850    -0.8620 hn         1 3GC       0.210133
     18 H22         -0.3340    -0.5540     0.7640 hn         1 3GC       0.210133
     19 HA1          1.8300    -0.8850    -0.5100 hx         1 3GC       0.079700
     20 HB11         1.6160     2.1330    -0.2120 hc         1 3GC       0.070700
     21 HB12         3.0610     1.2490    -0.7220 hc         1 3GC       0.070700
     22 HG11         1.8290     0.3640    -2.6750 hc         1 3GC       0.007700
     23 HG12         0.3840     1.2480    -2.1640 hc         1 3GC       0.007700
     24 H2           1.0650     2.0330    -4.6490 hn         1 3GC       0.160500
     25 HA2          3.0860     4.1810    -4.4380 h1         1 3GC       0.075700
     26 HB21         2.6630     4.4650    -6.8560 h1         1 3GC       0.041700
     27 HB22         1.3470     3.2860    -6.7650 h1         1 3GC       0.041700
     28 HG2          3.8650     2.1610    -7.8270 hs         1 3GC       0.166800
     29 H13         -0.3340     0.9390     0.0930 hn         1 3GC       0.210133
@<TRIPOS>BOND
     1     1     2 1   
     2     1    17 1   
     3     1    18 1   
     4     1    29 1   
     5     2     3 1   
     6     2     6 1   
     7     2    19 1   
     8     3     4 1   
     9     3     5 1   
    10     6     7 1   
    11     6    20 1   
    12     6    21 1   
    13     7     8 1   
    14     7    22 1   
    15     7    23 1   
    16     8     9 2   
    17     8    10 1   
    18    10    11 1   
    19    10    24 1   
    20    11    12 1   
    21    11    14 1   
    22    11    25 1   
    23    12    13 1   
    24    12    16 1   
    25    14    15 1   
    26    14    26 1   
    27    14    27 1   
    28    15    28 1   
@<TRIPOS>SUBSTRUCTURE
     1 3GC         1 TEMP              0 ****  ****    0 ROOT
