@<TRIPOS>MOLECULE
molecule
   29    28     1     0     0
SMALL
bcc


@<TRIPOS>ATOM
      1 N1           0.0000     0.0000     0.0000 nz         1 3GC      -0.791600
      2 CA1          1.4690     0.0000     0.0000 c3         1 3GC      -0.021500
      3 C1           1.9710     0.0000     1.4210 c          1 3GC       0.873600
      4 O11          3.1430    -0.5810     1.7170 o          1 3GC      -0.786800
      5 O12          1.3180     0.5230     2.2920 o          1 3GC      -0.786800
      6 CB1          1.9770     1.2480    -0.7220 c3         1 3GC      -0.074400
      7 CG1          1.4680     1.2480    -2.1640 c3         1 3GC      -0.182400
      8 CD1          1.9690     2.4780    -2.8750 c          1 3GC       0.662100
      9 OE1          2.6680     3.2760    -2.2870 o          1 3GC      -0.608100
     10 N2           1.6430     2.6910    -4.1650 ns         1 3GC      -0.531900
     11 CA2          2.1320     3.8860    -4.8570 c3         1 3GC       0.024700
     12 C2           1.1380     5.0060    -4.6840 c          1 3GC       0.886600
     13 O2          -0.1670     4.7310    -4.5450 o          1 3GC      -0.828800
     14 CB2          2.3020     3.5810    -6.3450 c3         1 3GC       0.062700
     15 SG2          3.4960     2.2320    -6.5540 sh         1 3GC      -0.485900
     16 O3           1.5200     6.1530    -4.6690 o          1 3GC      -0.828800
     17 H11         -0.3340    -0.3850    -0.8620 hn         1 3GC       0.437467
     18 H22         -0.3340    -0.5540     0.7640 hn         1 3GC       0.437467
     19 HA1          1.8300    -0.8850    -0.5100 hx         1 3GC       0.095700
     20 HB11         1.6160     2.1330    -0.2120 hc         1 3GC       0.102700
     21 HB12         3.0610     1.2490    -0.7220 hc         1 3GC       0.102700
     22 HG11         1.8290     0.3640    -2.6750 hc         1 3GC       0.037700
     23 HG12         0.3840     1.2480    -2.1640 hc         1 3GC       0.037700
     24 H2           1.0650     2.0330    -4.6490 hn         1 3GC       0.305500
     25 HA2          3.0860     4.1810    -4.4380 h1         1 3GC       0.092700
     26 HB21         2.6630     4.4650    -6.8560 h1         1 3GC       0.066700
     27 HB22         1.3470     3.2860    -6.7650 h1         1 3GC       0.066700
     28 HG2          3.8650     2.1610    -7.8270 hs         1 3GC       0.194800
     29 H13         -0.3340     0.9390     0.0930 hn         1 3GC       0.437467
@<TRIPOS>BOND
     1     1     2 1   
     2     1    17 1   
     3     1    18 1   
     4     2     3 1   
     5     2     6 1   
     6     2    19 1   
     7     3     4 1   
     8     3     5 1   
     9     6     7 1   
    10     6    20 1   
    11     6    21 1   
    12     7     8 1   
    13     7    22 1   
    14     7    23 1   
    15     8     9 2   
    16     8    10 1   
    17    10    11 1   
    18    10    24 1   
    19    11    12 1   
    20    11    14 1   
    21    11    25 1   
    22    12    13 1   
    23    12    16 1   
    24    14    15 1   
    25    14    26 1   
    26    14    27 1   
    27    15    28 1   
    28    29     1 1   
@<TRIPOS>SUBSTRUCTURE
     1 3GC         1 TEMP              0 ****  ****    0 ROOT
