@<TRIPOS>MOLECULE
3GF
   52    56     1     0     0
SMALL
bcc


@<TRIPOS>ATOM
      1 C29          0.0000     0.0000     0.0000 c3         1 3GF       0.190100
      2 N26          1.4680     0.0000     0.0000 n3         1 3GF      -0.548600
      3 C27          1.9950     0.0000     1.3720 c3         1 3GF       0.152300
      4 C28          3.5220     0.0800     1.3300 c3         1 3GF       0.142300
      5 N18          4.0500    -1.0590     0.5660 nh         1 3GF      -0.465300
      6 C24          3.5230    -1.0590    -0.8060 c3         1 3GF       0.142300
      7 C25          1.9960    -1.1390    -0.7630 c3         1 3GF       0.152300
      8 C14          5.4400    -1.0600     0.5660 ca         1 3GF       0.452200
      9 C15          6.1360    -2.0630    -0.1050 ca         1 3GF      -0.205300
     10 C16          7.5310    -2.0200    -0.0760 cp         1 3GF      -0.084300
     11 C17          8.3440    -3.0500    -0.7660 cp         1 3GF      -0.011000
     12 C19          9.3860    -2.6860    -1.6240 ca         1 3GF      -0.209300
     13 C20         10.1180    -3.6780    -2.2450 ca         1 3GF       0.404200
     14 N21          9.8450    -4.9510    -2.0390 nb         1 3GF      -0.577000
     15 C22          8.8710    -5.3370    -1.2380 ca         1 3GF       0.404200
     16 C23          8.0930    -4.4110    -0.5730 ca         1 3GF      -0.209300
     17 C11          8.1400    -0.9640     0.6320 cq         1 3GF       0.378800
     18 N12          7.3840    -0.0590     1.2380 nb         1 3GF      -0.245000
     19 N13          6.1020    -0.1020     1.2010 nb         1 3GF      -0.333000
     20 C8           9.6170    -0.8660     0.6990 cq         1 3GF      -0.154500
     21 C7          10.2210     0.3770     0.7080 ca         1 3GF      -0.050000
     22 C6          11.6200     0.4640     0.7770 ca         1 3GF      -0.043000
     23 C5          12.2720     1.7090     0.7900 ca         1 3GF      -0.081000
     24 C4          13.6310     1.7590     0.8580 ca         1 3GF      -0.102000
     25 C3          14.3880     0.5910     0.9150 ca         1 3GF      -0.094000
     26 C2          13.7920    -0.6330     0.9050 ca         1 3GF      -0.092000
     27 C1          12.3920    -0.7250     0.8360 ca         1 3GF      -0.029000
     28 C10         11.7450    -1.9740     0.8240 ca         1 3GF      -0.090000
     29 C9          10.3910    -2.0370     0.7570 ca         1 3GF      -0.108000
     30 H1          -0.3610    -0.9000     0.4820 h1         1 3GF       0.001033
     31 H2          -0.3610     0.8680     0.5390 h1         1 3GF       0.001033
     32 H3          -0.3610     0.0330    -1.0210 h1         1 3GF       0.001033
     33 H5           1.6950    -0.9130     1.8730 h1         1 3GF       0.015450
     34 H6           1.6040     0.8570     1.9080 h1         1 3GF       0.015450
     35 H7           3.8210     1.0040     0.8500 h1         1 3GF       0.030450
     36 H8           3.9130     0.0480     2.3400 h1         1 3GF       0.030450
     37 H9           3.9140    -1.9160    -1.3420 h1         1 3GF       0.030450
     38 H10          3.8230    -0.1460    -1.3060 h1         1 3GF       0.030450
     39 H11          1.6050    -1.1080    -1.7740 h1         1 3GF       0.015450
     40 H12          1.6970    -2.0640    -0.2840 h1         1 3GF       0.015450
     41 H13          5.6280    -2.9750    -0.3930 ha         1 3GF       0.135000
     42 H14          9.6160    -1.6420    -1.7980 ha         1 3GF       0.125000
     43 H15         10.9280    -3.4060    -2.9110 h4         1 3GF      -0.016900
     44 H16          8.6830    -6.3940    -1.0960 h4         1 3GF      -0.016900
     45 H17          7.2940    -4.7350     0.0830 ha         1 3GF       0.125000
     46 H18          9.6180     1.2720     0.7980 ha         1 3GF       0.125000
     47 H19         11.6960     2.6260     0.7460 ha         1 3GF       0.108000
     48 H20         14.1300     2.7200     0.8670 ha         1 3GF       0.102000
     49 H21         15.4680     0.6570     0.9690 ha         1 3GF       0.101000
     50 H22         14.3950    -1.5320     0.9500 ha         1 3GF       0.107000
     51 H23         12.3280    -2.8860     0.8680 ha         1 3GF       0.109000
     52 H24          9.9000    -3.0020     0.7640 ha         1 3GF       0.121000
@<TRIPOS>BOND
     1     1     2 1   
     2     1    30 1   
     3     1    31 1   
     4     1    32 1   
     5     2     3 1   
     6     2     7 1   
     7     3     4 1   
     8     3    33 1   
     9     3    34 1   
    10     4     5 1   
    11     4    35 1   
    12     4    36 1   
    13     5     6 1   
    14     5     8 1   
    15     6     7 1   
    16     6    37 1   
    17     6    38 1   
    18     7    39 1   
    19     7    40 1   
    20     8     9 ar  
    21     8    19 ar  
    22     9    10 ar  
    23     9    41 1   
    24    10    11 1   
    25    10    17 1   
    26    11    12 ar  
    27    11    16 ar  
    28    12    13 ar  
    29    12    42 1   
    30    13    14 ar  
    31    13    43 1   
    32    14    15 ar  
    33    15    16 ar  
    34    15    44 1   
    35    16    45 1   
    36    17    18 2   
    37    17    20 1   
    38    18    19 ar  
    39    20    21 1   
    40    20    29 2   
    41    21    22 ar  
    42    21    46 1   
    43    22    23 ar  
    44    22    27 ar  
    45    23    24 ar  
    46    23    47 1   
    47    24    25 ar  
    48    24    48 1   
    49    25    26 ar  
    50    25    49 1   
    51    26    27 ar  
    52    26    50 1   
    53    27    28 ar  
    54    28    29 ar  
    55    28    51 1   
    56    29    52 1   
@<TRIPOS>SUBSTRUCTURE
     1 3GF         1 TEMP              0 ****  ****    0 ROOT
