@<TRIPOS>MOLECULE
molecule
   33    35     1     0     0
SMALL
bcc


@<TRIPOS>ATOM
      1 O21          0.0000     0.0000     0.0000 o          1 3GG      -0.633100
      2 C8           1.2160     0.0000     0.0000 c          1 3GG       0.783100
      3 N7           1.8900     0.0000     1.1670 ns         1 3GG      -0.486100
      4 C3           1.1950     0.1100     2.3770 ca         1 3GG       0.066600
      5 C4           1.6660    -0.5390     3.5110 ca         1 3GG      -0.143500
      6 C5           0.9780    -0.4270     4.7030 ca         1 3GG      -0.110500
      7 C6          -0.1790     0.3270     4.7680 ca         1 3GG      -0.143000
      8 C1          -0.6510     0.9720     3.6400 ca         1 3GG      -0.110500
      9 C2           0.0360     0.8710     2.4460 ca         1 3GG      -0.143500
     10 N9           1.8890    -0.0070    -1.1670 ns         1 3GG      -0.492100
     11 C10          1.1940     0.0850    -2.3760 ca         1 3GG       0.093600
     12 C11          1.7430     0.7900    -3.4410 ca         1 3GG      -0.148500
     13 C12          1.0590     0.8820    -4.6340 ca         1 3GG      -0.076000
     14 C13         -0.1850     0.2650    -4.7720 ca         1 3GG      -0.164500
     15 C14         -0.7330    -0.4430    -3.7020 ca         1 3GG      -0.076000
     16 C15         -0.0430    -0.5350    -2.5130 ca         1 3GG      -0.148500
     17 C16         -0.9220     0.3620    -6.0520 cc         1 3GG       0.481000
     18 N17         -2.1320    -0.1840    -6.3290 na         1 3GG      -0.189400
     19 N18         -2.4060     0.1810    -7.6580 nd         1 3GG      -0.214800
     20 N19         -1.4030     0.8800    -8.0680 nc         1 3GG      -0.004000
     21 N20         -0.5290     0.9970    -7.1360 nc         1 3GG      -0.419000
     22 H1           2.8890    -0.0530     1.1670 hn         1 3GG       0.319500
     23 H2           2.5720    -1.1300     3.4620 ha         1 3GG       0.145500
     24 H3           1.3440    -0.9320     5.5890 ha         1 3GG       0.133500
     25 H4          -0.7190     0.4100     5.7040 ha         1 3GG       0.131000
     26 H5          -1.5570     1.5630     3.6950 ha         1 3GG       0.133500
     27 H6          -0.3350     1.3770     1.5630 ha         1 3GG       0.145500
     28 H7           2.8860    -0.1000    -1.1690 hn         1 3GG       0.323500
     29 H8           2.7090     1.2680    -3.3320 ha         1 3GG       0.158500
     30 H9           1.4870     1.4320    -5.4640 ha         1 3GG       0.145000
     31 H10         -1.6980    -0.9240    -3.8070 ha         1 3GG       0.145000
     32 H11         -0.4680    -1.0850    -1.6810 ha         1 3GG       0.158500
     33 H12         -2.7070    -0.7300    -5.7180 hn         1 3GG       0.338700
@<TRIPOS>BOND
     1     8     7 ar  
     2     8     9 ar  
     3     7     6 ar  
     4     9     4 ar  
     5     6     5 ar  
     6     1     2 2   
     7     4     5 ar  
     8     4     3 1   
     9     2     3 1   
    10     2    10 1   
    11    16    15 ar  
    12    16    11 ar  
    13    15    14 ar  
    14    10    11 1   
    15    11    12 ar  
    16    21    20 1   
    17    21    17 2   
    18    14    17 1   
    19    14    13 ar  
    20    20    19 2   
    21    17    18 1   
    22    12    13 ar  
    23    19    18 1   
    24     3    22 1   
    25     5    23 1   
    26     6    24 1   
    27     7    25 1   
    28     8    26 1   
    29     9    27 1   
    30    10    28 1   
    31    12    29 1   
    32    13    30 1   
    33    15    31 1   
    34    16    32 1   
    35    18    33 1   
@<TRIPOS>SUBSTRUCTURE
     1 3GG         1 TEMP              0 ****  ****    0 ROOT
