@<TRIPOS>MOLECULE
3GG
   33    35     1     0     0
SMALL
bcc


@<TRIPOS>ATOM
      1 O21          0.0000     0.0000     0.0000 o          1 3GG      -0.684100
      2 C8           1.2160     0.0000     0.0000 c          1 3GG       0.554100
      3 N7           1.8900     0.0000     1.1670 ns         1 3GG      -0.045100
      4 C3           1.1950     0.1100     2.3770 ca         1 3GG      -0.081400
      5 C4           1.6660    -0.5390     3.5110 ca         1 3GG      -0.117000
      6 C5           0.9780    -0.4270     4.7030 ca         1 3GG      -0.082000
      7 C6          -0.1790     0.3270     4.7680 ca         1 3GG      -0.113000
      8 C1          -0.6510     0.9720     3.6400 ca         1 3GG      -0.082000
      9 C2           0.0360     0.8710     2.4460 ca         1 3GG      -0.117000
     10 N9           1.8890    -0.0070    -1.1670 ns         1 3GG      -0.053100
     11 C10          1.1940     0.0850    -2.3760 ca         1 3GG      -0.054400
     12 C11          1.7430     0.7900    -3.4410 ca         1 3GG      -0.121500
     13 C12          1.0590     0.8820    -4.6340 ca         1 3GG      -0.052000
     14 C13         -0.1850     0.2650    -4.7720 ca         1 3GG      -0.161500
     15 C14         -0.7330    -0.4430    -3.7020 ca         1 3GG      -0.052000
     16 C15         -0.0430    -0.5350    -2.5130 ca         1 3GG      -0.121500
     17 C16         -0.9220     0.3620    -6.0520 cc         1 3GG       0.312000
     18 N17         -2.1320    -0.1840    -6.3290 na         1 3GG       0.289600
     19 N18         -2.4060     0.1810    -7.6580 nc         1 3GG      -0.402800
     20 N19         -1.4030     0.8800    -8.0680 nd         1 3GG       0.034000
     21 N20         -0.5290     0.9970    -7.1360 nd         1 3GG      -0.396000
     22 H1           2.8890    -0.0530     1.1670 hn         1 3GG       0.160500
     23 H2           2.5720    -1.1300     3.4620 ha         1 3GG       0.122000
     24 H3           1.3440    -0.9320     5.5890 ha         1 3GG       0.103500
     25 H4          -0.7190     0.4100     5.7040 ha         1 3GG       0.103000
     26 H5          -1.5570     1.5630     3.6950 ha         1 3GG       0.103500
     27 H6          -0.3350     1.3770     1.5630 ha         1 3GG       0.122000
     28 H7           2.8860    -0.1000    -1.1690 hn         1 3GG       0.164500
     29 H8           2.7090     1.2680    -3.3320 ha         1 3GG       0.132500
     30 H9           1.4870     1.4320    -5.4640 ha         1 3GG       0.113500
     31 H10         -1.6980    -0.9240    -3.8070 ha         1 3GG       0.113500
     32 H11         -0.4680    -1.0850    -1.6810 ha         1 3GG       0.132500
     33 H12         -2.7070    -0.7300    -5.7180 hn         1 3GG       0.174700
@<TRIPOS>BOND
     1     1     2 2   
     2     2     3 1   
     3     2    10 1   
     4     3     4 1   
     5     3    22 1   
     6     4     5 ar  
     7     4     9 ar  
     8     5     6 ar  
     9     5    23 1   
    10     6     7 ar  
    11     6    24 1   
    12     7     8 ar  
    13     7    25 1   
    14     8     9 ar  
    15     8    26 1   
    16     9    27 1   
    17    10    11 1   
    18    10    28 1   
    19    11    12 ar  
    20    11    16 ar  
    21    12    13 ar  
    22    12    29 1   
    23    13    14 ar  
    24    13    30 1   
    25    14    15 ar  
    26    14    17 1   
    27    15    16 ar  
    28    15    31 1   
    29    16    32 1   
    30    17    18 1   
    31    17    21 2   
    32    18    19 1   
    33    18    33 1   
    34    19    20 2   
    35    20    21 1   
@<TRIPOS>SUBSTRUCTURE
     1 3GG         1 TEMP              0 ****  ****    0 ROOT
