@<TRIPOS>MOLECULE
molecule
  157   157     1     0     0
SMALL
bcc


@<TRIPOS>ATOM
      1 C1           0.0000     0.0000     0.0000 c3         1 3GH       0.116400
      2 C2           1.5310     0.0000     0.0000 c3         1 3GH       0.117700
      3 N2           2.0180     0.0000     1.3810 ns         1 3GH      -0.581900
      4 C3           2.0390     1.2500    -0.7210 c3         1 3GH       0.136100
      5 O3           1.5260     1.2730    -2.0550 oh         1 3GH      -0.601800
      6 C4           3.5690     1.2260    -0.7640 c3         1 3GH      -0.101400
      7 C5           4.0830     2.5320    -1.3740 c3         1 3GH      -0.083400
      8 C6           5.6120     2.5070    -1.4180 c3         1 3GH      -0.080400
      9 C7           6.1260     3.8130    -2.0260 c3         1 3GH      -0.082400
     10 C8           7.6550     3.7890    -2.0700 c3         1 3GH      -0.082400
     11 C9           8.1680     5.0960    -2.6790 c3         1 3GH      -0.082400
     12 C10          9.6980     5.0720    -2.7230 c3         1 3GH      -0.081400
     13 C11         10.2110     6.3780    -3.3320 c3         1 3GH      -0.082400
     14 C12         11.7400     6.3540    -3.3750 c3         1 3GH      -0.082400
     15 C13         12.2540     7.6600    -3.9840 c3         1 3GH      -0.082400
     16 C14         13.7830     7.6360    -4.0280 c3         1 3GH      -0.082400
     17 C15         14.2960     8.9430    -4.6370 c3         1 3GH      -0.082400
     18 C16         15.8260     8.9180    -4.6800 c3         1 3GH      -0.081400
     19 C17         16.3390    10.2250    -5.2890 c3         1 3GH      -0.084400
     20 C18         17.8680    10.2000    -5.3330 c3         1 3GH      -0.092100
     21 C1A         -1.9010     1.3160     0.6300 c3         1 3GH       0.333900
     22 O1A         -0.4770     1.2150     0.5810 os         1 3GH      -0.450600
     23 C2A         -2.2990     2.7380     1.0330 c3         1 3GH       0.134100
     24 O2A         -1.7400     3.6710     0.1050 oh         1 3GH      -0.597800
     25 C3A         -1.7640     3.0310     2.4370 c3         1 3GH      -0.113400
     26 C4A         -2.3080     1.9790     3.4080 c3         1 3GH       0.114100
     27 O4A         -3.7320     2.0750     3.4690 oh         1 3GH      -0.597800
     28 C5M         -1.9100     0.5860     2.9140 c3         1 3GH       0.152100
     29 C6A         -2.5010    -0.4750     3.8460 c3         1 3GH       0.147400
     30 O6A         -2.4120     0.3900     1.5900 os         1 3GH      -0.409600
     31 CAA          2.1480    -1.1620     2.0510 c          1 3GH       0.658100
     32 OAA          1.8600    -2.2080     1.5100 o          1 3GH      -0.605100
     33 CAB          2.6500    -1.1620     3.4720 c3         1 3GH      -0.155400
     34 CAC          2.7020    -2.5990     3.9940 c3         1 3GH      -0.066400
     35 CAD          3.2120    -2.5990     5.4370 c3         1 3GH      -0.085400
     36 CAE          3.2640    -4.0350     5.9600 c3         1 3GH      -0.080400
     37 CAF          3.7740    -4.0340     7.4020 c3         1 3GH      -0.082400
     38 CAG          3.8260    -5.4720     7.9260 c3         1 3GH      -0.081400
     39 CAH          4.3350    -5.4710     9.3680 c3         1 3GH      -0.082400
     40 CAI          4.3880    -6.9090     9.8910 c3         1 3GH      -0.081400
     41 CAJ          4.8970    -6.9080    11.3330 c3         1 3GH      -0.081400
     42 CAK          4.9500    -8.3450    11.8560 c3         1 3GH      -0.082400
     43 CAL          5.4590    -8.3450    13.2990 c3         1 3GH      -0.082400
     44 CAM          5.5120    -9.7810    13.8220 c3         1 3GH      -0.082400
     45 CAN          6.0210    -9.7810    15.2650 c3         1 3GH      -0.082400
     46 CAO          6.0740   -11.2190    15.7870 c3         1 3GH      -0.082400
     47 CAP          6.5830   -11.2180    17.2300 c3         1 3GH      -0.082400
     48 CAQ          6.6350   -12.6550    17.7530 c3         1 3GH      -0.082400
     49 CAR          7.1450   -12.6540    19.1950 c3         1 3GH      -0.081400
     50 CAS          7.1970   -14.0910    19.7180 c3         1 3GH      -0.082400
     51 CAT          7.7070   -14.0920    21.1600 c3         1 3GH      -0.082400
     52 CAU          7.7590   -15.5280    21.6830 c3         1 3GH      -0.082400
     53 CAV          8.2690   -15.5280    23.1260 c3         1 3GH      -0.082400
     54 CAW          8.3210   -16.9650    23.6490 c3         1 3GH      -0.082400
     55 CAX          8.8310   -16.9640    25.0910 c3         1 3GH      -0.081400
     56 CAY          8.8830   -18.4020    25.6140 c3         1 3GH      -0.084400
     57 CAZ          9.3920   -18.4010    27.0570 c3         1 3GH      -0.092100
     58 H1          -0.3610    -0.0800    -1.0180 h1         1 3GH       0.055700
     59 H1A         -0.3610    -0.8420     0.5780 h1         1 3GH       0.055700
     60 H2           1.8920    -0.8840    -0.5110 h1         1 3GH       0.099700
     61 HN2          2.2720     0.8620     1.8220 hn         1 3GH       0.313500
     62 H3           1.7070     2.1340    -0.1900 h1         1 3GH       0.051700
     63 HO3          1.1580     2.1220    -2.2350 ho         1 3GH       0.409000
     64 H4           3.9580     1.1200     0.2410 hc         1 3GH       0.052700
     65 H4A          3.9000     0.3900    -1.3690 hc         1 3GH       0.052700
     66 H5           3.6940     2.6380    -2.3800 hc         1 3GH       0.042700
     67 H5A          3.7520     3.3670    -0.7690 hc         1 3GH       0.042700
     68 H6           6.0000     2.4000    -0.4120 hc         1 3GH       0.042200
     69 H6A          5.9420     1.6720    -2.0230 hc         1 3GH       0.042200
     70 H7           5.7380     3.9210    -3.0320 hc         1 3GH       0.041200
     71 H7A          5.7950     4.6490    -1.4210 hc         1 3GH       0.041200
     72 H8           7.9860     2.9540    -2.6750 hc         1 3GH       0.041200
     73 H8A          8.0430     3.6830    -1.0640 hc         1 3GH       0.041200
     74 H9           7.8370     5.9310    -2.0740 hc         1 3GH       0.041200
     75 H9A          7.7790     5.2020    -3.6850 hc         1 3GH       0.041200
     76 H10         10.0290     4.2370    -3.3280 hc         1 3GH       0.041200
     77 H10A        10.0860     4.9650    -1.7170 hc         1 3GH       0.041200
     78 H11          9.8230     6.4850    -4.3380 hc         1 3GH       0.041200
     79 H11A         9.8800     7.2140    -2.7270 hc         1 3GH       0.041200
     80 H12         12.0710     5.5180    -3.9800 hc         1 3GH       0.041200
     81 H12A        12.1280     6.2470    -2.3690 hc         1 3GH       0.041200
     82 H13         11.8660     7.7670    -4.9900 hc         1 3GH       0.040700
     83 H13A        11.9230     8.4960    -3.3790 hc         1 3GH       0.040700
     84 H14         14.1140     6.8010    -4.6330 hc         1 3GH       0.041200
     85 H14A        14.1710     7.5300    -3.0220 hc         1 3GH       0.041200
     86 H15         13.9650     9.7780    -4.0320 hc         1 3GH       0.040700
     87 H15A        13.9080     9.0490    -5.6430 hc         1 3GH       0.040700
     88 H16         16.1570     8.0830    -5.2850 hc         1 3GH       0.041200
     89 H16A        16.2140     8.8120    -3.6740 hc         1 3GH       0.041200
     90 H17         15.9510    10.3310    -6.2950 hc         1 3GH       0.039700
     91 H17A        16.0080    11.0600    -4.6840 hc         1 3GH       0.039700
     92 H18         18.1990     9.3650    -5.9370 hc         1 3GH       0.032367
     93 H18A        18.2570    10.0950    -4.3270 hc         1 3GH       0.032367
     94 H18B        18.2320    11.1250    -5.7650 hc         1 3GH       0.032367
     95 H1AA        -2.3170     1.0890    -0.3440 h2         1 3GH       0.080700
     96 H2A         -3.3790     2.8240     1.0330 h1         1 3GH       0.065700
     97 HO2A        -2.4190     4.2400    -0.2170 ho         1 3GH       0.401000
     98 H3A         -0.6810     2.9890     2.4280 hc         1 3GH       0.061200
     99 H3AA        -2.0910     4.0150     2.7510 hc         1 3GH       0.061200
    100 H4AA        -1.8870     2.1450     4.3920 h1         1 3GH       0.037700
    101 HO4A        -3.9820     2.5550     4.2410 ho         1 3GH       0.400000
    102 HO5A        -2.5140    -2.4300     3.9220 ho         1 3GH       0.403000
    103 H5M         -0.8300     0.5030     2.9040 h1         1 3GH       0.068700
    104 H6AA        -3.5820    -0.4470     3.7850 h1         1 3GH       0.033200
    105 H6AB        -2.1910    -0.2730     4.8640 h1         1 3GH       0.033200
    106 HAB          3.6430    -0.7290     3.5050 hc         1 3GH       0.055700
    107 HABA         1.9810    -0.5770     4.0910 hc         1 3GH       0.055700
    108 HAC          3.3710    -3.1840     3.3750 hc         1 3GH       0.061200
    109 HACA         1.7090    -3.0310     3.9620 hc         1 3GH       0.061200
    110 HAD          4.2050    -2.1660     5.4690 hc         1 3GH       0.037200
    111 HADA         2.5430    -2.0130     6.0560 hc         1 3GH       0.037200
    112 HAE          3.9330    -4.6210     5.3410 hc         1 3GH       0.044700
    113 HAEA         2.2710    -4.4680     5.9280 hc         1 3GH       0.044700
    114 HAF          4.7660    -3.6020     7.4340 hc         1 3GH       0.039200
    115 HAFA         3.1050    -3.4490     8.0210 hc         1 3GH       0.039200
    116 HAG          4.4950    -6.0570     7.3070 hc         1 3GH       0.042200
    117 HAGA         2.8330    -5.9040     7.8940 hc         1 3GH       0.042200
    118 HAH          3.6670    -4.8850     9.9870 hc         1 3GH       0.040200
    119 HAHA         5.3280    -5.0380     9.4000 hc         1 3GH       0.040200
    120 HAI          3.3950    -7.3410     9.8580 hc         1 3GH       0.041700
    121 HAIA         5.0570    -7.4940     9.2720 hc         1 3GH       0.041700
    122 HAJ          4.2290    -6.3230    11.9520 hc         1 3GH       0.040700
    123 HAJA         5.8900    -6.4760    11.3650 hc         1 3GH       0.040700
    124 HAK          3.9570    -8.7770    11.8240 hc         1 3GH       0.041200
    125 HAKA         5.6190    -8.9310    11.2370 hc         1 3GH       0.041200
    126 HAL          4.7900    -7.7590    13.9180 hc         1 3GH       0.040700
    127 HALA         6.4520    -7.9120    13.3310 hc         1 3GH       0.040700
    128 HAM          4.5190   -10.2140    13.7900 hc         1 3GH       0.041200
    129 HAMA         6.1800   -10.3670    13.2030 hc         1 3GH       0.041200
    130 HAN          5.3520    -9.1960    15.8840 hc         1 3GH       0.040700
    131 HANA         7.0140    -9.3490    15.2970 hc         1 3GH       0.040700
    132 HAO          5.0810   -11.6510    15.7550 hc         1 3GH       0.041200
    133 HAOA         6.7430   -11.8040    15.1680 hc         1 3GH       0.041200
    134 HAP          5.9140   -10.6330    17.8490 hc         1 3GH       0.040700
    135 HAPA         7.5760   -10.7860    17.2620 hc         1 3GH       0.040700
    136 HAQ          5.6430   -13.0870    17.7200 hc         1 3GH       0.040700
    137 HAQA         7.3040   -13.2400    17.1330 hc         1 3GH       0.040700
    138 HAR          8.1380   -12.2220    19.2270 hc         1 3GH       0.040700
    139 HARA         6.4760   -12.0690    19.8140 hc         1 3GH       0.040700
    140 HAS          7.8660   -14.6770    19.0990 hc         1 3GH       0.040700
    141 HASA         6.2040   -14.5230    19.6860 hc         1 3GH       0.040700
    142 HAT          7.0380   -13.5060    21.7800 hc         1 3GH       0.040700
    143 HATA         8.7000   -13.6590    21.1920 hc         1 3GH       0.040700
    144 HAU          8.4280   -16.1140    21.0640 hc         1 3GH       0.040700
    145 HAUA         6.7660   -15.9600    21.6510 hc         1 3GH       0.040700
    146 HAV          9.2620   -15.0960    23.1580 hc         1 3GH       0.040700
    147 HAVA         7.6000   -14.9420    23.7450 hc         1 3GH       0.040700
    148 HAW          7.3280   -17.3970    23.6170 hc         1 3GH       0.040700
    149 HAWA         8.9900   -17.5500    23.0300 hc         1 3GH       0.040700
    150 HAX          8.1610   -16.3790    25.7110 hc         1 3GH       0.040700
    151 HAXA         9.8230   -16.5320    25.1240 hc         1 3GH       0.040700
    152 HAY          7.8900   -18.8340    25.5810 hc         1 3GH       0.039700
    153 HAYA         9.5520   -18.9870    24.9950 hc         1 3GH       0.039700
    154 HAZ          9.4300   -19.4180    27.4270 hc         1 3GH       0.032367
    155 HAZA        10.3850   -17.9670    27.0890 hc         1 3GH       0.032367
    156 HAZB         8.7230   -17.8160    27.6760 hc         1 3GH       0.032367
    157 O5A         -2.0350    -1.7670     3.4530 oh         1 3GH      -0.597800
@<TRIPOS>BOND
     1     1     2 1
     2     1    22 1
     3     2     3 1
     4     2     4 1
     5     3    31 1
     6     4     5 1
     7     4     6 1
     8     6     7 1
     9     7     8 1
    10     8     9 1
    11     9    10 1
    12    10    11 1
    13    11    12 1
    14    12    13 1
    15    13    14 1
    16    14    15 1
    17    15    16 1
    18    16    17 1
    19    17    18 1
    20    18    19 1
    21    19    20 1
    22    21    22 1
    23    21    23 1
    24    21    30 1
    25    23    24 1
    26    23    25 1
    27    25    26 1
    28    26    27 1
    29    26    28 1
    30   157    29 1
    31    28    29 1
    32    28    30 1
    33    31    32 2
    34    31    33 1
    35    33    34 1
    36    34    35 1
    37    35    36 1
    38    36    37 1
    39    37    38 1
    40    38    39 1
    41    39    40 1
    42    40    41 1
    43    41    42 1
    44    42    43 1
    45    43    44 1
    46    44    45 1
    47    45    46 1
    48    46    47 1
    49    47    48 1
    50    48    49 1
    51    49    50 1
    52    50    51 1
    53    51    52 1
    54    52    53 1
    55    53    54 1
    56    54    55 1
    57    55    56 1
    58    56    57 1
    59     1    58 1
    60     1    59 1
    61     2    60 1
    62     3    61 1
    63     4    62 1
    64     5    63 1
    65     6    64 1
    66     6    65 1
    67     7    66 1
    68     7    67 1
    69     8    68 1
    70     8    69 1
    71     9    70 1
    72     9    71 1
    73    10    72 1
    74    10    73 1
    75    11    74 1
    76    11    75 1
    77    12    76 1
    78    12    77 1
    79    13    78 1
    80    13    79 1
    81    14    80 1
    82    14    81 1
    83    15    82 1
    84    15    83 1
    85    16    84 1
    86    16    85 1
    87    17    86 1
    88    17    87 1
    89    18    88 1
    90    18    89 1
    91    19    90 1
    92    19    91 1
    93    20    92 1
    94    20    93 1
    95    20    94 1
    96    21    95 1
    97    23    96 1
    98    24    97 1
    99    25    98 1
   100    25    99 1
   101    26   100 1
   102    27   101 1
   103   157   102 1
   104    28   103 1
   105    29   104 1
   106    29   105 1
   107    33   106 1
   108    33   107 1
   109    34   108 1
   110    34   109 1
   111    35   110 1
   112    35   111 1
   113    36   112 1
   114    36   113 1
   115    37   114 1
   116    37   115 1
   117    38   116 1
   118    38   117 1
   119    39   118 1
   120    39   119 1
   121    40   120 1
   122    40   121 1
   123    41   122 1
   124    41   123 1
   125    42   124 1
   126    42   125 1
   127    43   126 1
   128    43   127 1
   129    44   128 1
   130    44   129 1
   131    45   130 1
   132    45   131 1
   133    46   132 1
   134    46   133 1
   135    47   134 1
   136    47   135 1
   137    48   136 1
   138    48   137 1
   139    49   138 1
   140    49   139 1
   141    50   140 1
   142    50   141 1
   143    51   142 1
   144    51   143 1
   145    52   144 1
   146    52   145 1
   147    53   146 1
   148    53   147 1
   149    54   148 1
   150    54   149 1
   151    55   150 1
   152    55   151 1
   153    56   152 1
   154    56   153 1
   155    57   154 1
   156    57   155 1
   157    57   156 1
@<TRIPOS>SUBSTRUCTURE
     1 3GH         1 TEMP              0 ****  ****    0 ROOT
