@<TRIPOS>MOLECULE
3GJ
   45    47     1     0     0
SMALL
bcc


@<TRIPOS>ATOM
      1 O11        -0.3700    0.4190    0.1440 o         1 3GJ     -0.558100
      2 C10         0.8330    0.1800   -0.0510 c         1 3GJ      0.684700
      3 N9          1.7950    0.3370    0.9540 n         1 3GJ     -0.481100
      4 C1          1.4890    0.7360    2.2650 ca        1 3GJ      0.100600
      5 C6          0.9720    2.0210    2.5600 ca        1 3GJ     -0.113400
      6 CL7         0.6880    3.1690    1.3550 cl        1 3GJ     -0.057400
      7 C5          0.7020    2.3590    3.9030 ca        1 3GJ      0.414700
      8 N4          0.9350    1.5390    4.9400 nb        1 3GJ     -0.649000
      9 C3          1.4530    0.3280    4.6730 ca        1 3GJ      0.414700
     10 C2          1.7420   -0.1190    3.3700 ca        1 3GJ     -0.113400
     11 CL8         2.3910   -1.6680    3.1460 cl        1 3GJ     -0.057400
     12 C12         1.3390   -0.2960   -1.3690 ca        1 3GJ     -0.166600
     13 C17         0.5060   -1.1400   -2.1150 ca        1 3GJ     -0.077000
     14 C16         0.9230   -1.6020   -3.3630 ca        1 3GJ      0.058100
     15 C15         2.1840   -1.2100   -3.8780 ca        1 3GJ      0.148100
     16 O18         2.5080   -1.7040   -5.1200 os        1 3GJ     -0.307900
     17 C19         3.8370   -1.4540   -5.5710 c3        1 3GJ      0.106700
     18 C14         3.0050   -0.3630   -3.1230 ca        1 3GJ     -0.205000
     19 C13         2.5790    0.0930   -1.8770 ca        1 3GJ     -0.068000
     20 O20         0.1870   -2.5400   -4.0700 os        1 3GJ     -0.307900
     21 C21        -1.1300   -2.1290   -4.4430 c3        1 3GJ      0.095100
     22 C22        -1.1310   -1.3280   -5.6820 cc        1 3GJ      0.218000
     23 C26        -0.2320   -1.0300   -6.6820 cd        1 3GJ     -0.333600
     24 C25        -0.9870   -0.1830   -7.6110 cd        1 3GJ      0.315600
     25 N24        -2.2410   -0.0320   -7.1350 nc        1 3GJ     -0.354300
     26 O23        -2.3580   -0.6910   -6.0000 os        1 3GJ     -0.123100
     27 C27        -0.4170    0.3840   -8.8520 c3        1 3GJ     -0.110700
     28 C28        -1.4000    1.1770   -9.6760 c3        1 3GJ     -0.092100
     29 H1          2.6490   -0.1670    0.8470 hn        1 3GJ      0.326500
     30 H2          0.2780    3.3510    4.1550 h4        1 3GJ      0.042600
     31 H3          1.6410   -0.3240    5.5470 h4        1 3GJ      0.042600
     32 H4         -0.4780   -1.4320   -1.7120 ha        1 3GJ      0.167000
     33 H5          3.8870   -2.0130   -6.5400 h1        1 3GJ      0.050033
     34 H6          4.5850   -1.8540   -4.8450 h1        1 3GJ      0.050033
     35 H7          3.9930   -0.3600   -5.7380 h1        1 3GJ      0.050033
     36 H8          3.9840   -0.0440   -3.5100 ha        1 3GJ      0.147000
     37 H9          3.2290    0.7790   -1.3120 ha        1 3GJ      0.146000
     38 H10        -1.6340   -1.5640   -3.6140 h1        1 3GJ      0.084200
     39 H11        -1.6620   -3.1070   -4.6210 h1        1 3GJ      0.084200
     40 H12         0.8060   -1.3370   -6.7730 ha        1 3GJ      0.188000
     41 H13        -0.0080   -0.4660   -9.4650 hc        1 3GJ      0.056200
     42 H14         0.4520    1.0390   -8.5660 hc        1 3GJ      0.056200
     43 H15        -0.8950    1.5640  -10.5950 hc        1 3GJ      0.043033
     44 H16        -1.7960    2.0450   -9.0970 hc        1 3GJ      0.043033
     45 H17        -2.2630    0.5400   -9.9870 hc        1 3GJ      0.043033
@<TRIPOS>BOND
     1    1    2 2   
     2    2    3 1   
     3    2   12 1   
     4    3    4 1   
     5    3   29 1   
     6    4    5 ar  
     7    4   10 ar  
     8    5    6 1   
     9    5    7 ar  
    10    7    8 ar  
    11    7   30 1   
    12    8    9 ar  
    13    9   10 ar  
    14    9   31 1   
    15   10   11 1   
    16   12   13 ar  
    17   12   19 ar  
    18   13   14 ar  
    19   13   32 1   
    20   14   15 ar  
    21   14   20 1   
    22   15   16 1   
    23   15   18 ar  
    24   16   17 1   
    25   17   33 1   
    26   17   34 1   
    27   17   35 1   
    28   18   19 ar  
    29   18   36 1   
    30   19   37 1   
    31   20   21 1   
    32   21   22 1   
    33   21   38 1   
    34   21   39 1   
    35   22   23 2   
    36   22   26 1   
    37   23   24 1   
    38   23   40 1   
    39   24   25 2   
    40   24   27 1   
    41   25   26 1   
    42   27   28 1   
    43   27   41 1   
    44   27   42 1   
    45   28   43 1   
    46   28   44 1   
    47   28   45 1   
@<TRIPOS>SUBSTRUCTURE
     1 3GJ         1 TEMP              0 ****  ****    0 ROOT
