@<TRIPOS>MOLECULE
molecule
   37    40     1     0     0
SMALL
bcc


@<TRIPOS>ATOM
      1 N1           0.0000     0.0000     0.0000 na         1 3GK       0.192900
      2 C6           3.0970    -0.0040     1.7340 ca         1 3GK      -0.097500
      3 C7           3.3680    -0.0180     3.1000 ca         1 3GK      -0.092000
      4 C8           4.6820    -0.0270     3.5410 ca         1 3GK       0.055600
      5 C9           5.7240    -0.0230     2.6210 ca         1 3GK      -0.150000
      6 C13          4.1350    -0.6880     5.7600 c          1 3GK       0.667700
      7 C17          3.7360    -1.1880     9.4890 ca         1 3GK      -0.118200
      8 C18          4.8030    -0.4400     9.9650 ca         1 3GK      -0.049000
      9 C22          1.9690    -2.4480     9.1010 cc         1 3GK       0.449700
     10 F27          6.8110     0.9590    11.0080 f          1 3GK      -0.222300
     11 F25          6.6520     2.3590     9.2100 f          1 3GK      -0.222300
     12 F26          7.9930     0.5130     9.1060 f          1 3GK      -0.222300
     13 C19          5.6380     0.2170     9.0820 ca         1 3GK      -0.183300
     14 N23          2.7430    -1.9360    10.0920 na         1 3GK      -0.264300
     15 N21          2.4150    -2.0600     7.9400 nd         1 3GK      -0.567100
     16 C16          3.5020    -1.2800     8.1070 ca         1 3GK       0.167400
     17 C20          5.4250     0.1390     7.7180 ca         1 3GK      -0.077000
     18 C15          4.3610    -0.6060     7.2150 ca         1 3GK      -0.092600
     19 O14          3.2050    -1.3390     5.3250 o          1 3GK      -0.543100
     20 N12          4.9600    -0.0410     4.9120 ns         1 3GK      -0.481100
     21 C10          5.4540    -0.0080     1.2670 ca         1 3GK      -0.118000
     22 C11          4.1470     0.0010     0.8190 ca         1 3GK      -0.115000
     23 C3           1.6920     0.0000     1.2550 cd         1 3GK       0.578500
     24 N2           1.2890     0.0000     0.0000 nc         1 3GK      -0.572800
     25 N4           0.5860    -0.0050     2.0140 nd         1 3GK      -0.371000
     26 N5          -0.4260     0.0010     1.2150 nc         1 3GK      -0.201800
     27 H1          -0.5790     0.0020    -0.8160 hn         1 3GK       0.367700
     28 H2           2.5540    -0.0220     3.8160 ha         1 3GK       0.183000
     29 H3           6.7500    -0.0300     2.9680 ha         1 3GK       0.131000
     30 H4           4.9810    -0.3700    11.0310 ha         1 3GK       0.150000
     31 H5           1.1060    -3.0850     9.2530 h5         1 3GK       0.083800
     32 H6           2.6210    -2.0790    11.0750 hn         1 3GK       0.309700
     33 H8           6.0890     0.6590     7.0380 ha         1 3GK       0.142000
     34 H9           5.7770     0.4180     5.2620 hn         1 3GK       0.323500
     35 H10          6.2690    -0.0040     0.5540 ha         1 3GK       0.135000
     36 H11          3.9390     0.0120    -0.2440 ha         1 3GK       0.146000
     37 C24          6.7940     1.0260     9.6110 c3         1 3GK       0.678200
@<TRIPOS>BOND
     1    14     9 1   
     2    14     7 1   
     3     9    15 2   
     4     7     8 ar  
     5     7    16 ar  
     6    15    16 1   
     7     8    13 ar  
     8    16    18 ar  
     9    11    37 1   
    10    13    37 1   
    11    13    17 ar  
    12    18    17 ar  
    13    18     6 1   
    14    24     1 1   
    15    24    23 2   
    16    37    10 1   
    17    37    12 1   
    18     1    26 1   
    19    20     6 1   
    20    20     4 1   
    21     3     4 ar  
    22     3     2 ar  
    23     6    19 2   
    24     4     5 ar  
    25    23     2 1   
    26    23    25 1   
    27    26    25 2   
    28     2    22 ar  
    29     5    21 ar  
    30    22    21 ar  
    31     1    27 1   
    32     3    28 1   
    33     5    29 1   
    34     8    30 1   
    35     9    31 1   
    36    14    32 1   
    37    17    33 1   
    38    20    34 1   
    39    21    35 1   
    40    22    36 1   
@<TRIPOS>SUBSTRUCTURE
     1 3GK         1 TEMP              0 ****  ****    0 ROOT
