@<TRIPOS>MOLECULE
3GK
   37    40     1     0     0
SMALL
bcc


@<TRIPOS>ATOM
      1 N1           0.0000     0.0000     0.0000 na         1 3GK       0.684900
      2 C6           3.0970    -0.0040     1.7340 ca         1 3GK      -0.103500
      3 C7           3.3680    -0.0180     3.1000 ca         1 3GK      -0.071000
      4 C8           4.6820    -0.0270     3.5410 ca         1 3GK      -0.089400
      5 C9           5.7240    -0.0230     2.6210 ca         1 3GK      -0.123000
      6 C13          4.1350    -0.6880     5.7600 c          1 3GK       0.572700
      7 C17          3.7360    -1.1880     9.4890 ca         1 3GK      -0.304200
      8 C18          4.8030    -0.4400     9.9650 ca         1 3GK       0.006000
      9 C22          1.9690    -2.4480     9.1010 cc         1 3GK       0.258700
     10 F27          6.8110     0.9590    11.0080 f          1 3GK      -0.207967
     11 F25          6.6520     2.3590     9.2100 f          1 3GK      -0.207967
     12 F26          7.9930     0.5130     9.1060 f          1 3GK      -0.207967
     13 C19          5.6380     0.2170     9.0820 ca         1 3GK      -0.216300
     14 N23          2.7430    -1.9360    10.0920 na         1 3GK       0.265700
     15 N21          2.4150    -2.0600     7.9400 nd         1 3GK      -0.475100
     16 C16          3.5020    -1.2800     8.1070 ca         1 3GK       0.143400
     17 C20          5.4250     0.1390     7.7180 ca         1 3GK      -0.050000
     18 C15          4.3610    -0.6060     7.2150 ca         1 3GK      -0.095600
     19 O14          3.2050    -1.3390     5.3250 o          1 3GK      -0.585100
     20 N12          4.9600    -0.0410     4.9120 ns         1 3GK      -0.046100
     21 C10          5.4540    -0.0080     1.2670 ca         1 3GK      -0.091000
     22 C11          4.1470     0.0010     0.8190 ca         1 3GK      -0.088000
     23 C3           1.6920     0.0000     1.2550 cc         1 3GK       0.575500
     24 N2           1.2890     0.0000     0.0000 nd         1 3GK      -0.708800
     25 N4           0.5860    -0.0050     2.0140 nc         1 3GK      -0.330000
     26 N5          -0.4260     0.0010     1.2150 nd         1 3GK      -0.378800
     27 H1          -0.5790     0.0020    -0.8160 hn         1 3GK       0.175700
     28 H2           2.5540    -0.0220     3.8160 ha         1 3GK       0.161000
     29 H3           6.7500    -0.0300     2.9680 ha         1 3GK       0.104000
     30 H4           4.9810    -0.3700    11.0310 ha         1 3GK       0.117000
     31 H5           1.1060    -3.0850     9.2530 h5         1 3GK       0.032800
     32 H6           2.6210    -2.0790    11.0750 hn         1 3GK       0.132700
     33 H8           6.0890     0.6590     7.0380 ha         1 3GK       0.115000
     34 H9           5.7770     0.4180     5.2620 hn         1 3GK       0.171500
     35 H10          6.2690    -0.0040     0.5540 ha         1 3GK       0.104000
     36 H11          3.9390     0.0120    -0.2440 ha         1 3GK       0.119000
     37 C24          6.7940     1.0260     9.6110 c3         1 3GK       0.643200
@<TRIPOS>BOND
     1     1    24 1   
     2     1    26 1   
     3     1    27 1   
     4     2     3 ar  
     5     2    22 ar  
     6     2    23 1   
     7     3     4 ar  
     8     3    28 1   
     9     4     5 ar  
    10     4    20 1   
    11     5    21 ar  
    12     5    29 1   
    13     6    18 1   
    14     6    19 2   
    15     6    20 1   
    16     7     8 ar  
    17     7    14 1   
    18     7    16 ar  
    19     8    13 ar  
    20     8    30 1   
    21     9    14 1   
    22     9    15 2   
    23     9    31 1   
    24    10    37 1   
    25    11    37 1   
    26    12    37 1   
    27    13    17 ar  
    28    13    37 1   
    29    14    32 1   
    30    15    16 1   
    31    16    18 ar  
    32    17    18 ar  
    33    17    33 1   
    34    20    34 1   
    35    21    22 ar  
    36    21    35 1   
    37    22    36 1   
    38    23    24 2   
    39    23    25 1   
    40    25    26 2   
@<TRIPOS>SUBSTRUCTURE
     1 3GK         1 TEMP              0 ****  ****    0 ROOT
