@<TRIPOS>MOLECULE
molecule
   64    67     1     0     0
SMALL
bcc


@<TRIPOS>ATOM
      1 C1           0.0000     0.0000     0.0000 ca         1 3GM      -0.140000
      2 C2           1.3830     0.0000     0.0000 ca         1 3GM      -0.126000
      3 C3          -0.6890     0.0020     1.1970 ca         1 3GM      -0.127000
      4 C4           2.0720     0.0000     1.1970 ca         1 3GM      -0.082000
      5 C5           3.3390     2.6130     2.2720 ca         1 3GM      -0.144000
      6 C6           4.4180     2.9930     1.4900 ca         1 3GM      -0.158000
      7 C7           4.8130     1.3790     3.7130 ca         1 3GM      -0.075600
      8 C8          -0.0000     0.0020     2.3980 ca         1 3GM      -0.114300
      9 C9           1.3830     0.0010     2.3980 ca         1 3GM      -0.064300
     10 C10          3.5270     1.8140     3.3770 ca         1 3GM      -0.106300
     11 C11          5.6990     2.5710     1.8110 ca         1 3GM       0.068100
     12 C12          5.9050     1.7610     2.9210 ca         1 3GM       0.079100
     13 C16         -0.5120     0.0040     3.8230 c3         1 3GM      -0.048100
     14 C17          8.2500     2.0380     2.6630 c3         1 3GM       0.097400
     15 C18          1.8940     0.0010     3.8230 c3         1 3GM      -0.034400
     16 C19          0.6910    -0.4370     4.6850 c3         1 3GM       0.112700
     17 C20          7.9610     2.2180     1.1660 c3         1 3GM       0.094100
     18 C21          2.3490     1.4060     4.2230 c3         1 3GM      -0.016100
     19 C24          9.1090     2.9850     0.5070 c3         1 3GM      -0.089400
     20 C25         -0.7520    -0.3730     9.3750 c3         1 3GM      -0.207400
     21 C26         -0.7510     0.3550    10.7200 c3         1 3GM      -0.027200
     22 N27          0.6910     0.2600     5.9730 ns         1 3GM      -0.530900
     23 N28         -1.5170    -0.4270    11.7000 nz         1 3GM      -0.763600
     24 O29          5.1520     1.0760     6.1140 o          1 3GM      -0.845300
     25 O30         10.0160     3.9950    -2.9810 o          1 3GM      -0.853300
     26 O31          5.0710    -0.6860     4.7670 o          1 3GM      -0.845300
     27 O33         10.9080     4.2470    -0.9750 o          1 3GM      -0.853300
     28 O34          7.1500     1.3310     3.2490 os         1 3GM      -0.299900
     29 O35          6.7450     2.9630     1.0320 os         1 3GM      -0.319900
     30 H1          -0.5420     0.0000    -0.9380 ha         1 3GM       0.120000
     31 H2           1.9250    -0.0020    -0.9380 ha         1 3GM       0.135000
     32 H3          -1.7720     0.0020     1.1960 ha         1 3GM       0.111000
     33 H4           3.1550    -0.0000     1.1960 ha         1 3GM       0.164000
     34 H5           2.3420     2.9490     2.0140 ha         1 3GM       0.110000
     35 H6           4.2590     3.6230     0.6230 ha         1 3GM       0.132000
     36 H161        -0.8300     1.0000     4.1050 hc         1 3GM       0.045700
     37 H162        -1.3270    -0.7020     3.9290 hc         1 3GM       0.045700
     38 H18          2.7070    -0.7070     3.9290 hc         1 3GM       0.124700
     39 H211         1.5360     2.1060     4.0700 hc         1 3GM       0.044200
     40 H212         2.6360     1.4090     5.2680 hc         1 3GM       0.044200
     41 H221         1.0650     0.5570     8.7020 hc         1 3GM       0.077700
     42 H222        -0.4080     1.4180     8.2370 hc         1 3GM       0.077700
     43 H27          1.1330     1.1540     6.0570 hn         1 3GM       0.343500
     44 H231         8.5320     2.0670    -0.7180 hc         1 3GM       0.043700
     45 H232         7.9860     3.6430    -1.1850 hc         1 3GM       0.043700
     46 H19          0.6900    -1.5110     4.8210 h1         1 3GM       0.092700
     47 H171         8.3520     3.0080     3.1340 h1         1 3GM       0.061700
     48 H172         9.1610     1.4650     2.7920 h1         1 3GM       0.061700
     49 H20          7.8180     1.2400     0.7210 h1         1 3GM       0.052700
     50 H241        10.0440     2.4760     0.7050 hc         1 3GM       0.053200
     51 H242         9.1520     3.9890     0.9120 hc         1 3GM       0.053200
     52 H251        -0.3900    -1.3240     9.0040 hc         1 3GM       0.109700
     53 H252        -1.7860    -0.3340     9.0560 hc         1 3GM       0.109700
     54 H261        -1.2620     1.3030    10.6050 hx         1 3GM       0.174200
     55 H262         0.2310     0.4640    10.2770 hx         1 3GM       0.174200
     56 H281        -2.4840    -0.4310    11.4410 hn         1 3GM       0.451800
     57 H282        -1.1720    -1.3670    11.7190 hn         1 3GM       0.451800
     58 C23          8.8760     3.0540    -1.0030 c3         1 3GM      -0.199400
     59 C14          0.0460    -0.2750     7.0280 c          1 3GM       0.660100
     60 H283        -1.4160    -0.0160    12.6070 hn         1 3GM       0.451800
     61 C13          5.0200     0.5210     4.8940 c          1 3GM       0.897200
     62 C15         10.0080     3.8090    -1.6510 c          1 3GM       0.923600
     63 C22          0.0460     0.4410     8.3540 c3         1 3GM      -0.183400
     64 O32         -0.5350    -1.3330     6.9110 o          1 3GM      -0.641100
@<TRIPOS>BOND
     1     1     2 ar
     2     1     3 ar
     3     2     4 ar
     4     3     8 ar
     5     4     9 ar
     6     5     6 ar
     7     5    10 ar
     8     6    11 ar
     9     7    10 ar
    10     7    12 ar
    11     7    61 1
    12     8     9 ar
    13     8    13 1
    14     9    15 1
    15    10    18 1
    16    11    12 ar
    17    11    29 1
    18    12    28 1
    19    61    24 1
    20    61    26 1
    21    59    63 1
    22    59    22 1
    23    59    64 2
    24    62    58 1
    25    62    25 1
    26    62    27 1
    27    13    16 1
    28    14    17 1
    29    14    28 1
    30    15    16 1
    31    15    18 1
    32    16    22 1
    33    17    19 1
    34    17    29 1
    35    63    20 1
    36    58    19 1
    37    20    21 1
    38    21    23 1
    39     1    30 1
    40     2    31 1
    41     3    32 1
    42     4    33 1
    43     5    34 1
    44     6    35 1
    45    13    36 1
    46    13    37 1
    47    15    38 1
    48    18    39 1
    49    18    40 1
    50    63    41 1
    51    63    42 1
    52    22    43 1
    53    58    44 1
    54    58    45 1
    55    16    46 1
    56    14    47 1
    57    14    48 1
    58    17    49 1
    59    19    50 1
    60    19    51 1
    61    20    52 1
    62    20    53 1
    63    21    54 1
    64    21    55 1
    65    23    56 1
    66    23    57 1
    67    60    23 1
@<TRIPOS>SUBSTRUCTURE
     1 3GM         1 TEMP              0 ****  ****    0 ROOT
