@<TRIPOS>MOLECULE
molecule
   35    37     1     0     0
SMALL
bcc


@<TRIPOS>ATOM
      1 C4           0.0000     0.0000     0.0000 ca         1 3GN      -0.032200
      2 C5           1.4010     0.0000     0.0000 ca         1 3GN      -0.217600
      3 C6           2.0880     0.0000     1.2140 ca         1 3GN      -0.087000
      4 C8          -2.1730     0.0000    -0.3760 cc         1 3GN       0.488800
      5 C10          2.1450     0.0000    -1.2750 c          1 3GN       0.509700
      6 C13         -3.5000     0.0000    -1.0930 c3         1 3GN       0.150900
      7 C15         -3.8970    -1.2940    -3.0710 c3         1 3GN       0.148800
      8 C17         -4.3060    -1.2560    -0.7030 c3         1 3GN      -0.080400
      9 C1           1.3910    -0.0010     2.4090 ca         1 3GN      -0.148000
     10 C2           0.0130    -0.0000     2.4210 ca         1 3GN       0.021000
     11 C3          -0.6990    -0.0010     1.2190 ca         1 3GN       0.097400
     12 N7          -2.0230     0.0000     0.9150 nd         1 3GN      -0.590100
     13 N9          -0.9570     0.0060    -0.9880 na         1 3GN      -0.225300
     14 N11          3.4920    -0.0010    -1.2680 nz         1 3GN      -0.676400
     15 O12          1.5420    -0.0010    -2.3300 o          1 3GN      -0.456100
     16 N14         -3.2830    -0.0540    -2.5500 n7         1 3GN      -0.835200
     17 C16         -4.9890    -1.6600    -2.0360 c3         1 3GN      -0.115400
     18 C18         -4.2880     1.2590    -0.7260 c3         1 3GN      -0.100100
     19 H6           3.1710    -0.0010     1.2220 ha         1 3GN       0.109000
     20 H15         -4.3430    -1.1130    -4.0410 h1         1 3GN       0.061200
     21 H15A        -3.1560    -2.0820    -3.1300 h1         1 3GN       0.061200
     22 H17         -5.0490    -1.0150     0.0480 hc         1 3GN       0.069200
     23 H17A        -3.6450    -2.0430    -0.3600 hc         1 3GN       0.069200
     24 H1           1.9350    -0.0010     3.3460 ha         1 3GN       0.163000
     25 H2          -0.5200    -0.0010     3.3640 ha         1 3GN       0.174000
     26 HN9         -0.7920     0.1370    -1.9670 hn         1 3GN       0.341700
     27 HN11         3.8230    -0.8180    -0.7940 hn         1 3GN       0.476133
     28 HN1A         3.8240     0.8160    -0.7940 hn         1 3GN       0.476133
     29 HN14        -3.7160     0.7390    -2.9810 hn         1 3GN       0.371800
     30 H16         -5.1980    -2.7220    -2.0550 hc         1 3GN       0.063700
     31 H16A        -5.8870    -1.0770    -2.2010 hc         1 3GN       0.063700
     32 H18         -5.2230     1.2720    -1.2730 hc         1 3GN       0.057033
     33 H18A        -4.4920     1.2610     0.3380 hc         1 3GN       0.057033
     34 H18B        -3.7070     2.1370    -0.9840 hc         1 3GN       0.057033
     35 H113         3.8310    -0.0180    -2.2090 hn         1 3GN       0.476133
@<TRIPOS>BOND
     1     1     2 ar
     2     1    11 ar
     3     1    13 1
     4     2     3 ar
     5     2     5 1
     6     3     9 ar
     7     4     6 1
     8     4    12 2
     9     4    13 1
    10     5    14 1
    11     5    15 2
    12     6     8 1
    13     6    16 1
    14     6    18 1
    15     7    16 1
    16     7    17 1
    17     8    17 1
    18     9    10 ar
    19    10    11 ar
    20    11    12 1
    21     3    19 1
    22     7    20 1
    23     7    21 1
    24     8    22 1
    25     8    23 1
    26     9    24 1
    27    10    25 1
    28    13    26 1
    29    14    27 1
    30    14    28 1
    31    16    29 1
    32    17    30 1
    33    17    31 1
    34    18    32 1
    35    18    33 1
    36    18    34 1
    37    35    14 1
@<TRIPOS>SUBSTRUCTURE
     1 3GN         1 TEMP              0 ****  ****    0 ROOT
