@<TRIPOS>MOLECULE
molecule
   66    71     1     0     0
SMALL
bcc


@<TRIPOS>ATOM
      1 C28          0.0000     0.0000     0.0000 ca         1 3GO      -0.093000
      2 C35          1.4040     0.0000     0.0000 ca         1 3GO      -0.154300
      3 C40          2.1370     0.0000     1.2020 ca         1 3GO      -0.088000
      4 C39          3.5000    -0.0000     1.1260 ca         1 3GO      -0.240300
      5 C38          4.1270    -0.0020    -0.1180 ca         1 3GO       0.446200
      6 N37          3.4420    -0.0010    -1.2360 nb         1 3GO      -0.694000
      7 C36          2.1050    -0.0010    -1.2320 ca         1 3GO       0.385600
      8 C27          1.3750    -0.0010    -2.4330 ca         1 3GO      -0.193300
      9 C26          0.0140    -0.0000    -2.3960 ca         1 3GO      -0.081000
     10 C25         -0.6720    -0.0000    -1.1840 ca         1 3GO      -0.134300
     11 C24         -2.1790    -0.0010    -1.1840 c3         1 3GO       0.291100
     12 N23         -2.6670     1.3810    -1.1850 nu         1 3GO      -0.904200
     13 C6          -4.0240     1.6340    -1.1840 cc         1 3GO       0.674700
     14 N7          -4.9610     0.7180    -1.1820 nd         1 3GO      -0.662100
     15 C8          -6.1780     1.3190    -1.1810 ca         1 3GO      -0.174200
     16 C4          -7.5040     0.8570    -1.1790 ca         1 3GO       0.723200
     17 N10         -7.7820    -0.5000    -1.1780 nv         1 3GO      -0.964500
     18 N1          -8.4870     1.7520    -1.1800 nb         1 3GO      -0.807000
     19 C2          -8.2310     3.0470    -1.1810 ca         1 3GO       0.707900
     20 N3          -7.0030     3.5250    -1.1820 nb         1 3GO      -0.794000
     21 C9          -5.9590     2.7060    -1.1820 ca         1 3GO       0.463800
     22 N5          -4.5940     2.8780    -1.1780 na         1 3GO      -0.276000
     23 C11         -3.8800     4.1570    -1.1730 c3         1 3GO       0.262800
     24 O12         -4.4930     5.0700    -0.2360 os         1 3GO      -0.370600
     25 C31         -4.0110     4.8530    -2.5460 c3         1 3GO       0.097100
     26 O34         -2.8470     4.6190    -3.3390 oh         1 3GO      -0.610800
     27 C32         -4.1380     6.3520    -2.1970 c3         1 3GO       0.116100
     28 O33         -3.0540     7.0910    -2.7640 oh         1 3GO      -0.628800
     29 C13         -4.0680     6.3860    -0.6530 c3         1 3GO       0.127100
     30 C14         -5.0140     7.4530    -0.1000 c3         1 3GO       0.129400
     31 O15         -4.9030     7.4960     1.3240 os         1 3GO      -0.377600
     32 C16         -5.7500     8.4650     1.9440 c3         1 3GO       0.141700
     33 C17         -5.5500     8.4240     3.4370 ca         1 3GO      -0.075300
     34 C18         -4.5890     9.2270     4.0260 ca         1 3GO      -0.125500
     35 C19         -4.4010     9.1940     5.3920 ca         1 3GO      -0.110500
     36 C20         -5.1850     8.3490     6.1810 ca         1 3GO       0.000000
     37 C29         -4.9960     8.3110     7.6000 cg         1 3GO       0.238800
     38 N30         -4.8330     8.2650     8.7240 n1         1 3GO      -0.363800
     39 C21         -6.1530     7.5430     5.5810 ca         1 3GO      -0.110500
     40 C22         -6.3330     7.5880     4.2150 ca         1 3GO      -0.125500
     41 H28         -0.7940     0.0150     0.7370 ha         1 3GO       0.150000
     42 H40          1.5330     0.2900     2.0530 ha         1 3GO       0.146000
     43 H39          3.8700    -0.0450     2.1430 ha         1 3GO       0.146000
     44 H38          5.1380    -0.2860    -0.3860 h4         1 3GO       0.033100
     45 H27          2.2590    -0.0880    -3.0530 ha         1 3GO       0.185000
     46 H26         -0.5110     0.1930    -3.3240 ha         1 3GO       0.137000
     47 H24         -2.7710    -0.1150    -2.0840 h1         1 3GO       0.086200
     48 H24A        -2.3770    -0.4080    -0.1990 h1         1 3GO       0.086200
     49 HN23        -2.0450     2.1420    -1.3730 hn         1 3GO       0.443800
     50 HN10        -8.7570    -0.5400    -0.9560 hn         1 3GO       0.457300
     51 HN1A        -7.0040    -1.0970    -0.9750 hn         1 3GO       0.457300
     52 H2          -8.7960     3.9670    -1.0900 h5         1 3GO       0.072100
     53 H11         -2.8360     4.0110    -0.9250 h2         1 3GO       0.087700
     54 H31         -4.9020     4.5090    -3.0590 h1         1 3GO       0.068700
     55 HO34        -2.9380     4.7220    -4.2720 ho         1 3GO       0.422000
     56 H32         -5.0890     6.7400    -2.5390 h1         1 3GO       0.047700
     57 HO33        -3.1580     7.6120    -3.5430 ho         1 3GO       0.426000
     58 H13         -3.0510     6.5710    -0.3290 h1         1 3GO       0.079700
     59 H14         -5.6410     7.5770    -0.9750 h1         1 3GO       0.041200
     60 H14A        -4.3930     8.3350    -0.1930 h1         1 3GO       0.041200
     61 H16         -6.6720     7.8990     1.8940 h1         1 3GO       0.076700
     62 H16A        -5.5100     9.5200     1.8960 h1         1 3GO       0.076700
     63 H18         -3.8250     9.8750     3.6140 ha         1 3GO       0.144000
     64 H19         -3.6620     9.7520     5.9530 ha         1 3GO       0.149500
     65 H21         -7.0720     7.0270     5.8310 ha         1 3GO       0.149500
     66 H22         -7.2180     7.0250     3.9430 ha         1 3GO       0.144000
@<TRIPOS>BOND
     1     1     2 ar  
     2     1    10 ar  
     3     2     3 ar  
     4     2     7 ar  
     5     3     4 ar  
     6     4     5 ar  
     7     5     6 ar  
     8     6     7 ar  
     9     7     8 ar  
    10     8     9 ar  
    11     9    10 ar  
    12    10    11 1   
    13    11    12 1   
    14    12    13 1   
    15    13    14 2   
    16    13    22 1   
    17    14    15 1   
    18    15    16 ar  
    19    15    21 ar  
    20    16    17 1   
    21    16    18 ar  
    22    18    19 ar  
    23    19    20 ar  
    24    20    21 ar  
    25    21    22 1   
    26    22    23 1   
    27    23    24 1   
    28    23    25 1   
    29    24    29 1   
    30    25    26 1   
    31    25    27 1   
    32    27    28 1   
    33    27    29 1   
    34    29    30 1   
    35    30    31 1   
    36    31    32 1   
    37    32    33 1   
    38    33    34 ar  
    39    33    40 ar  
    40    34    35 ar  
    41    35    36 ar  
    42    36    37 1   
    43    36    39 ar  
    44    37    38 3   
    45    39    40 ar  
    46     1    41 1   
    47     3    42 1   
    48     4    43 1   
    49     5    44 1   
    50     8    45 1   
    51     9    46 1   
    52    11    47 1   
    53    11    48 1   
    54    12    49 1   
    55    17    50 1   
    56    17    51 1   
    57    19    52 1   
    58    23    53 1   
    59    25    54 1   
    60    26    55 1   
    61    27    56 1   
    62    28    57 1   
    63    29    58 1   
    64    30    59 1   
    65    30    60 1   
    66    32    61 1   
    67    32    62 1   
    68    34    63 1   
    69    35    64 1   
    70    39    65 1   
    71    40    66 1   
@<TRIPOS>SUBSTRUCTURE
     1 3GO         1 TEMP              0 ****  ****    0 ROOT
