@<TRIPOS>MOLECULE
3GP
   36    38     1     0     0
SMALL
bcc


@<TRIPOS>ATOM
      1 P           0.6920   -0.0580    0.1230 p5        1 3GP      1.324900
      2 O1P         2.0360    0.4570   -0.3290 o         1 3GP     -0.918167
      3 O2P         0.3370    0.0730    1.5680 o         1 3GP     -0.918167
      4 O3P         0.1960   -1.2530   -0.6340 o         1 3GP     -0.918167
      5 O5'         3.1020    2.1950   -2.3570 oh        1 3GP     -0.668800
      6 C5'         1.9680    2.1540   -3.1840 c3        1 3GP      0.155400
      7 C4'         0.6910    2.4960   -2.4150 c3        1 3GP      0.050100
      8 O4'        -0.1360    3.3450   -3.2410 os        1 3GP     -0.437600
      9 C3'        -0.1260    1.2480   -1.9810 c3        1 3GP      0.197100
     10 O3'        -0.3050    1.2040   -0.6320 os        1 3GP     -0.543200
     11 C2'        -1.4990    1.4150   -2.7040 c3        1 3GP      0.099100
     12 O2'        -2.5910    1.5980   -1.8360 oh        1 3GP     -0.635800
     13 C1'        -1.3690    2.7190   -3.5550 c3        1 3GP      0.212800
     14 N9         -1.4290    2.4930   -5.0030 na        1 3GP     -0.162900
     15 C8         -0.4110    1.9860   -5.8320 cc        1 3GP      0.427400
     16 N7         -0.7610    1.9110   -7.1380 nd        1 3GP     -0.635000
     17 C5         -2.0680    2.3890   -7.1790 cd        1 3GP      0.184800
     18 C6         -2.9800    2.5470   -8.2890 c         1 3GP      0.647000
     19 O6         -2.7940    2.2950   -9.4950 o         1 3GP     -0.651500
     20 N1         -4.2540    3.0530   -7.9280 n         1 3GP     -0.499400
     21 C2         -4.5780    3.4120   -6.6020 cd        1 3GP      0.598800
     22 N2         -5.8810    3.9980   -6.4120 nh        1 3GP     -0.866800
     23 N3         -3.7570    3.2760   -5.5510 nc        1 3GP     -0.607100
     24 C4         -2.5010    2.7670   -5.8490 cc        1 3GP      0.070800
     25 HO5'        2.9290    1.6070   -1.5840 ho        1 3GP      0.504000
     26 H5'1        1.8790    1.1410   -3.6650 h1        1 3GP      0.008700
     27 H5'2        2.1530    2.9220   -3.9860 h1        1 3GP      0.008700
     28 H3'         0.3730    0.3040   -2.3510 h1        1 3GP      0.081700
     29 H2'        -1.7290    0.5190   -3.3380 h1        1 3GP      0.056700
     30 HO2'       -2.2530    1.5360   -0.9220 ho        1 3GP      0.461000
     31 H1'        -2.1860    3.4570   -3.3020 h2        1 3GP      0.094700
     32 H8          0.5620    1.6980   -5.4050 h5        1 3GP      0.089100
     33 HN1        -4.9060    3.2270   -8.6580 hn        1 3GP      0.322500
     34 HN21       -6.5950    3.3130   -6.5730 hn        1 3GP      0.384800
     35 HN22       -5.9720    4.3800   -5.4890 hn        1 3GP      0.384800
     36 H4'         0.9440    3.1190   -1.5130 h1        1 3GP      0.100700
@<TRIPOS>BOND
     1    1    2 1   
     2    1    3 1   
     3    1    4 1   
     4    1   10 1   
     5    5    6 1   
     6    5   25 1   
     7    6    7 1   
     8    6   26 1   
     9    6   27 1   
    10    7    8 1   
    11    7    9 1   
    12    7   36 1   
    13    8   13 1   
    14    9   10 1   
    15    9   11 1   
    16    9   28 1   
    17   11   12 1   
    18   11   13 1   
    19   11   29 1   
    20   12   30 1   
    21   13   14 1   
    22   13   31 1   
    23   14   15 1   
    24   14   24 1   
    25   15   16 2   
    26   15   32 1   
    27   16   17 1   
    28   17   18 1   
    29   17   24 2   
    30   18   19 2   
    31   18   20 1   
    32   20   21 1   
    33   20   33 1   
    34   21   22 1   
    35   21   23 2   
    36   22   34 1   
    37   22   35 1   
    38   23   24 1   
@<TRIPOS>SUBSTRUCTURE
     1 3GP         1 TEMP              0 ****  ****    0 ROOT
