@<TRIPOS>MOLECULE
molecule
   18    18     1     0     0
SMALL
bcc


@<TRIPOS>ATOM
      1 OAC          0.0000     0.0000     0.0000 o          1 3GQ      -0.876800
      2 CAL          1.3460     0.0000     0.0000 c          1 3GQ       0.970200
      3 OAF          1.9540     0.0000     1.0520 o          1 3GQ      -0.876800
      4 CAO          2.0860    -0.0000    -1.2820 ca         1 3GQ      -0.015600
      5 CAM          2.4400    -1.2130    -1.8940 ca         1 3GQ      -0.133100
      6 CAJ          2.0740    -2.4980    -1.2610 c          1 3GQ       0.887200
      7 OAD          1.4670    -2.5070    -0.2090 o          1 3GQ      -0.863050
      8 OAA          2.4160    -3.6600    -1.8510 o          1 3GQ      -0.863050
      9 CAH          3.1380    -1.2000    -3.1030 ca         1 3GQ      -0.131000
     10 CAG          3.4810    -0.0000    -3.6960 ca         1 3GQ      -0.246000
     11 CAI          3.1380     1.2000    -3.1020 ca         1 3GQ      -0.131000
     12 CAN          2.4350     1.2130    -1.8970 ca         1 3GQ      -0.133100
     13 CAK          2.0690     2.4980    -1.2650 c          1 3GQ       0.887200
     14 OAE          2.4150     3.6600    -1.8520 o          1 3GQ      -0.863050
     15 OAB          1.4570     2.5070    -0.2160 o          1 3GQ      -0.863050
     16 H3           3.4120    -2.1350    -3.5770 ha         1 3GQ       0.102000
     17 H4           4.0240    -0.0000    -4.6330 ha         1 3GQ       0.047000
     18 H5           3.4110     2.1340    -3.5780 ha         1 3GQ       0.102000
@<TRIPOS>BOND
     1    15    13 1
     2    13    12 1
     3    13    14 1
     4    11    12 ar
     5    11    10 ar
     6    12     4 ar
     7    10     9 ar
     8     3     2 1
     9     4     2 1
    10     4     5 ar
    11     9     5 ar
    12     2     1 1
    13     5     6 1
    14     7     6 1
    15     6     8 1
    16     9    16 1
    17    10    17 1
    18    11    18 1
@<TRIPOS>SUBSTRUCTURE
     1 3GQ         1 TEMP              0 ****  ****    0 ROOT
