@<TRIPOS>MOLECULE
3GQ
   18    18     1     0     0
SMALL
bcc


@<TRIPOS>ATOM
      1 OAC         0.0350   -0.0750    0.1400 o         1 3GQ     -0.863300
      2 CAL         1.3010   -0.0050    0.1370 c         1 3GQ      0.935200
      3 OAF         1.9660    0.0630    1.2140 o         1 3GQ     -0.863300
      4 CAO         2.0410   -0.0020   -1.1950 ca        1 3GQ     -0.048600
      5 CAM         2.4580   -1.2120   -1.7900 ca        1 3GQ     -0.083600
      6 CAJ         2.2690   -2.6310   -1.2700 c         1 3GQ      0.930200
      7 OAD         3.1950   -3.1740   -0.5900 o         1 3GQ     -0.879300
      8 OAA         1.2690   -3.3110   -1.6620 o         1 3GQ     -0.879300
      9 CAH         3.1390   -1.1910   -3.0170 ca        1 3GQ     -0.169000
     10 CAG         3.4160    0.0040   -3.6690 ca        1 3GQ     -0.212000
     11 CAI         3.0070    1.1970   -3.0850 ca        1 3GQ     -0.169000
     12 CAN         2.3240    1.2130   -1.8580 ca        1 3GQ     -0.083600
     13 CAK         1.9780    2.6290   -1.4180 c         1 3GQ      0.930200
     14 OAE         2.8380    3.3080   -0.7740 o         1 3GQ     -0.879300
     15 OAB         0.9110    3.1710   -1.8440 o         1 3GQ     -0.879300
     16 H3          3.4550   -2.1440   -3.4650 ha        1 3GQ      0.082000
     17 H4          3.9500    0.0070   -4.6290 ha        1 3GQ      0.050000
     18 H5          3.2180    2.1520   -3.5860 ha        1 3GQ      0.082000
@<TRIPOS>BOND
     1    1    2 1   
     2    2    3 1   
     3    2    4 1   
     4    4    5 ar  
     5    4   12 ar  
     6    5    6 1   
     7    5    9 ar  
     8    6    7 1   
     9    6    8 1   
    10    9   10 ar  
    11    9   16 1   
    12   10   11 ar  
    13   10   17 1   
    14   11   12 ar  
    15   11   18 1   
    16   12   13 1   
    17   13   14 1   
    18   13   15 1   
@<TRIPOS>SUBSTRUCTURE
     1 3GQ         1 TEMP              0 ****  ****    0 ROOT
