@<TRIPOS>MOLECULE
molecule
   12    11     1     0     0
SMALL
bcc


@<TRIPOS>ATOM
      1 C1           0.0000     0.0000     0.0000 c3         1 3GR       0.147400
      2 O1          -0.4780     1.1660     0.6730 oh         1 3GR      -0.596800
      3 C2           1.5280     0.0000     0.0000 c3         1 3GR       0.034100
      4 O2           2.0050     0.0000     1.3480 oh         1 3GR      -0.581800
      5 C3           2.0320    -1.2290    -0.7090 c          1 3GR       0.548900
      6 O3           2.7270    -1.1190    -1.6900 o          1 3GR      -0.508100
      7 H1C1        -0.3610    -0.0010    -1.0210 h1         1 3GR       0.032200
      8 H1C2        -0.3610    -0.8850     0.5110 h1         1 3GR       0.032200
      9 H1          -1.4140     1.2200     0.5810 ho         1 3GR       0.405000
     10 H2           1.8890     0.8850    -0.5110 h1         1 3GR       0.067700
     11 HA           2.8140     0.4810     1.3950 ho         1 3GR       0.411000
     12 H3           1.7840    -2.2130    -0.3290 h4         1 3GR       0.008200
@<TRIPOS>BOND
     1     1     2 1   
     2     1     3 1   
     3     1     7 1   
     4     1     8 1   
     5     2     9 1   
     6     3     4 1   
     7     3     5 1   
     8     3    10 1   
     9     4    11 1   
    10     5     6 2   
    11     5    12 1   
@<TRIPOS>SUBSTRUCTURE
     1 3GR         1 TEMP              0 ****  ****    0 ROOT
