@<TRIPOS>MOLECULE
3GR
   12    11     1     0     0
SMALL
bcc


@<TRIPOS>ATOM
      1 C1          0.1010    0.0710   -0.0750 c3        1 3GR      0.100400
      2 O1         -0.2170    1.2560    0.6390 oh        1 3GR     -0.613800
      3 C2          1.6230   -0.0720    0.0050 c3        1 3GR      0.022100
      4 O2          2.0520   -0.2570    1.3450 oh        1 3GR     -0.600800
      5 C3          2.0950   -1.2810   -0.7760 c         1 3GR      0.573900
      6 O3          1.7570   -1.4750   -1.9430 o         1 3GR     -0.523100
      7 H1C1       -0.4000   -0.8110    0.4050 h1        1 3GR      0.048200
      8 H1C2       -0.2170    0.1550   -1.1470 h1        1 3GR      0.048200
      9 H1         -1.1720    1.3690    0.5810 ho        1 3GR      0.413000
     10 H2          2.1080    0.8540   -0.4180 h1        1 3GR      0.076700
     11 HA          1.6560    0.4600    1.8590 ho        1 3GR      0.429000
     12 H3          2.7750   -1.9620   -0.2210 h4        1 3GR      0.027200
@<TRIPOS>BOND
     1    1    2 1   
     2    1    3 1   
     3    1    7 1   
     4    1    8 1   
     5    2    9 1   
     6    3    4 1   
     7    3    5 1   
     8    3   10 1   
     9    4   11 1   
    10    5    6 2   
    11    5   12 1   
@<TRIPOS>SUBSTRUCTURE
     1 3GR         1 TEMP              0 ****  ****    0 ROOT
