@<TRIPOS>MOLECULE
molecule
   38    40     1     0     0
SMALL
bcc


@<TRIPOS>ATOM
      1 CAB          0.0000     0.0000     0.0000 c3         1 3GS       0.137700
      2 OAN          1.4520     0.0000     0.0000 os         1 3GS      -0.417900
      3 CAP          2.0640     0.0000     1.2020 c          1 3GS       0.677700
      4 OAD          1.4010    -0.0010     2.2210 o          1 3GS      -0.528000
      5 CAU          3.5290    -0.0000     1.2800 cc         1 3GS      -0.128600
      6 CAT          4.4160     1.1710     1.3330 cc         1 3GS      -0.139600
      7 CAO          4.0100     2.5840     1.3220 c          1 3GS       0.673700
      8 OAC          3.7860     3.1620     2.3670 o          1 3GS      -0.523000
      9 OAM          3.8850     3.2400     0.1500 os         1 3GS      -0.423900
     10 CAA          3.4800     4.6330     0.2140 c3         1 3GS       0.137700
     11 CAS          5.7060     0.6810     1.3980 cd         1 3GS      -0.062600
     12 CAK          7.0910     1.3190     1.4700 c3         1 3GS       0.014200
     13 SAX          8.1930    -0.0700     0.9980 s4         1 3GS       0.262600
     14 OAE          9.3010    -0.1170     1.8860 o          1 3GS      -0.475200
     15 CAL          6.9810    -1.3640     1.4630 c3         1 3GS       0.057600
     16 NAW          5.6740    -0.6600     1.3910 na         1 3GS      -0.030100
     17 CAV          4.3630    -1.1010     1.3220 cd         1 3GS      -0.004300
     18 CAR          3.9280    -2.5120     1.2970 ca         1 3GS      -0.004000
     19 CAJ          2.8610    -2.9330     2.0930 ca         1 3GS      -0.146000
     20 CAQ          2.4610    -4.2540     2.0640 ca         1 3GS       0.139900
     21 FAF          1.4280    -4.6630     2.8330 f          1 3GS      -0.133900
     22 CAH          3.1160    -5.1610     1.2460 ca         1 3GS      -0.160000
     23 CAG          4.1730    -4.7500     0.4550 ca         1 3GS      -0.104000
     24 CAI          4.5800    -3.4320     0.4710 ca         1 3GS      -0.134000
     25 H1          -0.3610    -0.9020     0.4800 h1         1 3GS       0.050033
     26 H2          -0.3610     0.0350    -1.0210 h1         1 3GS       0.050033
     27 H3          -0.3610     0.8660     0.5410 h1         1 3GS       0.050033
     28 H4           4.2090     5.1950     0.7850 h1         1 3GS       0.049033
     29 H5           3.4180     5.0370    -0.7890 h1         1 3GS       0.049033
     30 H6           2.5110     4.7060     0.6930 h1         1 3GS       0.049033
     31 H7           7.3060     1.6540     2.4770 h1         1 3GS       0.109700
     32 H8           7.1760     2.1330     0.7590 h1         1 3GS       0.109700
     33 H10          7.1640    -1.6720     2.4850 h2         1 3GS       0.102700
     34 H11          7.0020    -2.1540     0.7210 h2         1 3GS       0.102700
     35 H12          2.4070    -2.2450     2.7960 ha         1 3GS       0.173000
     36 H13          2.7990    -6.1970     1.2280 ha         1 3GS       0.148000
     37 H14          4.6800    -5.4640    -0.1840 ha         1 3GS       0.139000
     38 H15          5.4080    -3.1120    -0.1490 ha         1 3GS       0.131000
@<TRIPOS>BOND
     1     1     2 1
     2     1    25 1
     3     1    26 1
     4     1    27 1
     5     3     2 1
     6     3     5 1
     7     4     3 2
     8     5    17 2
     9     6     5 1
    10     6    11 2
    11     7     6 1
    12     8     7 2
    13     9     7 1
    14    10     9 1
    15    10    28 1
    16    10    29 1
    17    10    30 1
    18    11    12 1
    19    11    16 1
    20    12    13 1
    21    12    31 1
    22    12    32 1
    23    13    15 1
    24    13    14 2
    25    15    33 1
    26    15    34 1
    27    16    15 1
    28    17    16 1
    29    17    18 1
    30    18    19 ar
    31    18    24 ar
    32    19    20 ar
    33    19    35 1
    34    20    21 1
    35    20    22 ar
    36    22    36 1
    37    23    22 ar
    38    23    37 1
    39    24    23 ar
    40    24    38 1
@<TRIPOS>SUBSTRUCTURE
     1 3GS         1 TEMP              0 ****  ****    0 ROOT
