@<TRIPOS>MOLECULE
3GS
   38    40     1     0     0
SMALL
bcc


@<TRIPOS>ATOM
      1 CAB        -0.1170    0.3650    0.1460 c3        1 3GS      0.126700
      2 OAN         1.3100    0.3090    0.1170 os        1 3GS     -0.417900
      3 CAP         1.9210   -0.1810    1.2390 c         1 3GS      0.680700
      4 OAD         1.2100   -0.6300    2.1420 o         1 3GS     -0.538000
      5 CAU         3.3770   -0.1100    1.1890 cc        1 3GS     -0.128600
      6 CAT         4.1630    1.0970    1.0880 cc        1 3GS     -0.130600
      7 CAO         3.6560    2.4540    1.0360 c         1 3GS      0.674700
      8 OAC         2.5180    2.8690    1.2650 o         1 3GS     -0.528000
      9 OAM         4.6100    3.3850    0.6880 os        1 3GS     -0.449900
     10 CAA         4.1710    4.7420    0.6240 c3        1 3GS      0.127700
     11 CAS         5.5080    0.7030    1.0790 cd        1 3GS     -0.037600
     12 CAK         6.8150    1.3810    1.0320 c3        1 3GS     -0.005800
     13 SAX         8.0620    0.1020    1.0110 s4        1 3GS      0.227600
     14 OAE         8.7600    0.1780    2.3080 o         1 3GS     -0.465200
     15 CAL         6.8650   -1.2740    1.2000 c3        1 3GS      0.060600
     16 NAW         5.5590   -0.6980    1.1560 na        1 3GS     -0.039100
     17 CAV         4.2630   -1.2100    1.2370 cd        1 3GS      0.017700
     18 CAR         3.9570   -2.6310    1.3320 ca        1 3GS     -0.020000
     19 CAJ         3.0510   -3.0740    2.3010 ca        1 3GS     -0.130000
     20 CAQ         2.7580   -4.4470    2.3910 ca        1 3GS      0.128900
     21 FAF         1.8860   -4.8870    3.3290 f         1 3GS     -0.132900
     22 CAH         3.3640   -5.3680    1.5160 ca        1 3GS     -0.154000
     23 CAG         4.2550   -4.9040    0.5520 ca        1 3GS     -0.111000
     24 CAI         4.5550   -3.5470    0.4560 ca        1 3GS     -0.132000
     25 H1         -0.3800    0.8150   -0.8430 h1        1 3GS      0.052367
     26 H2         -0.4550    1.0100    0.9920 h1        1 3GS      0.052367
     27 H3         -0.5360   -0.6640    0.2530 h1        1 3GS      0.052367
     28 H4          3.3670    4.8470   -0.1430 h1        1 3GS      0.051033
     29 H5          5.0930    5.3030    0.3320 h1        1 3GS      0.051033
     30 H6          3.7930    5.0680    1.6230 h1        1 3GS      0.051033
     31 H7          6.9250    2.0700    1.9100 h1        1 3GS      0.124700
     32 H8          6.8930    2.0110    0.1110 h1        1 3GS      0.124700
     33 H10         7.0340   -1.8240    2.1640 h2        1 3GS      0.101700
     34 H11         7.0110   -1.9950    0.3540 h2        1 3GS      0.101700
     35 H12         2.5510   -2.3570    2.9760 ha        1 3GS      0.186000
     36 H13         3.1250   -6.4380    1.5980 ha        1 3GS      0.152000
     37 H14         4.7250   -5.6190   -0.1410 ha        1 3GS      0.140000
     38 H15         5.2500   -3.1960   -0.3200 ha        1 3GS      0.133000
@<TRIPOS>BOND
     1    1    2 1   
     2    1   25 1   
     3    1   26 1   
     4    1   27 1   
     5    2    3 1   
     6    3    4 2   
     7    3    5 1   
     8    5    6 1   
     9    5   17 2   
    10    6    7 1   
    11    6   11 2   
    12    7    8 2   
    13    7    9 1   
    14    9   10 1   
    15   10   28 1   
    16   10   29 1   
    17   10   30 1   
    18   11   12 1   
    19   11   16 1   
    20   12   13 1   
    21   12   31 1   
    22   12   32 1   
    23   13   14 2   
    24   13   15 1   
    25   15   16 1   
    26   15   33 1   
    27   15   34 1   
    28   16   17 1   
    29   17   18 1   
    30   18   19 ar  
    31   18   24 ar  
    32   19   20 ar  
    33   19   35 1   
    34   20   21 1   
    35   20   22 ar  
    36   22   23 ar  
    37   22   36 1   
    38   23   24 ar  
    39   23   37 1   
    40   24   38 1   
@<TRIPOS>SUBSTRUCTURE
     1 3GS         1 TEMP              0 ****  ****    0 ROOT
