@<TRIPOS>MOLECULE
molecule
   45    48     1     0     0
SMALL
bcc


@<TRIPOS>ATOM
      1 C1           0.0000     0.0000     0.0000 c3         1 3GU       0.237500
      2 N1          -2.5250     0.1090    -1.2030 nb         1 3GU      -0.837000
      3 C2          -3.7270     0.0960    -1.7500 ca         1 3GU       0.737900
      4 N3          -4.2340     1.1420    -2.3690 nb         1 3GU      -0.784000
      5 C4          -3.5420     2.2720    -2.4660 ca         1 3GU       0.480800
      6 C5          -2.2570     2.3390    -1.8990 ca         1 3GU      -0.213200
      7 C6          -1.7590     1.1950    -1.2500 ca         1 3GU       0.784200
      8 N6          -0.5020     1.2000    -0.6720 nu         1 3GU      -0.885900
      9 N7          -1.7790     3.5820    -2.1370 nc         1 3GU      -0.590100
     10 C8          -2.6650     4.2680    -2.7980 cd         1 3GU       0.426700
     11 N9          -3.7710     3.5030    -3.0250 na         1 3GU      -0.252000
     12 C1'         -4.9820     3.9210    -3.7360 c3         1 3GU       0.262800
     13 C2'         -6.0580     4.4200    -2.7370 c3         1 3GU       0.095100
     14 O2'         -6.8410     3.3310    -2.2450 oh         1 3GU      -0.553800
     15 C21          1.5390     0.0000     0.0000 c3         1 3GU      -0.098400
     16 C22          1.9800     0.0000     1.4780 c3         1 3GU      -0.085900
     17 C23          0.7700    -0.6020     2.2350 c3         1 3GU      -0.085900
     18 C24         -0.4400     0.0000     1.4780 c3         1 3GU      -0.098400
     19 C3'         -6.9120     5.3590    -3.6240 c3         1 3GU       0.084100
     20 O3'         -8.0760     4.6770    -4.0970 oh         1 3GU      -0.568800
     21 C4'         -5.9820     5.7190    -4.7980 c3         1 3GU       0.126100
     22 O4'         -4.7190     5.0810    -4.5540 os         1 3GU      -0.400600
     23 C5'         -5.7950     7.2370    -4.8660 c3         1 3GU       0.141400
     24 O5'         -5.0290     7.5700    -6.0260 oh         1 3GU      -0.592800
     25 H1          -0.3690    -0.8900    -0.4950 h1         1 3GU       0.084700
     26 HN6          0.0560     2.0310    -0.6950 hn         1 3GU       0.462800
     27 H8          -2.5430     5.2950    -3.1210 h5         1 3GU       0.088800
     28 H1'         -5.3740     3.1120    -4.3420 h2         1 3GU       0.115700
     29 H2'         -5.5990     4.9720    -1.9250 h1         1 3GU       0.058700
     30 HO2'        -7.1250     3.5200    -1.3660 ho         1 3GU       0.405000
     31 H21          1.9090    -0.8890    -0.4960 hc         1 3GU       0.052700
     32 H21A         1.9090     0.8890    -0.4960 hc         1 3GU       0.052700
     33 H22          2.1710     1.0120     1.8150 hc         1 3GU       0.045950
     34 H22A         2.8560    -0.6230     1.6100 hc         1 3GU       0.045950
     35 H23          0.7700    -1.6830     2.1580 hc         1 3GU       0.045950
     36 H23A         0.7710    -0.2840     3.2700 hc         1 3GU       0.045950
     37 H24         -0.6310     1.0120     1.8150 hc         1 3GU       0.052700
     38 H24A        -1.3160    -0.6230     1.6110 hc         1 3GU       0.052700
     39 H3'         -7.1860     6.2510    -3.0730 h1         1 3GU       0.044700
     40 HO3'        -8.8420     5.1910    -3.9020 ho         1 3GU       0.404000
     41 H4'         -6.4040     5.3530    -5.7260 h1         1 3GU       0.089700
     42 H5'         -6.7640     7.7180    -4.9240 h1         1 3GU       0.029200
     43 H5'A        -5.2750     7.5770    -3.9790 h1         1 3GU       0.029200
     44 HO5'        -5.0980     8.4950    -6.1940 ho         1 3GU       0.405000
     45 H2          -4.3170    -0.8100    -1.6890 h5         1 3GU       0.060100
@<TRIPOS>BOND
     1     1     8 1   
     2     1    15 1   
     3     1    18 1   
     4     2     3 ar  
     5     2     7 ar  
     6     3     4 ar  
     7     4     5 ar  
     8     5     6 ar  
     9     5    11 1   
    10     6     7 ar  
    11     6     9 1   
    12     7     8 1   
    13     9    10 2   
    14    10    11 1   
    15    11    12 1   
    16    12    13 1   
    17    12    22 1   
    18    13    14 1   
    19    13    19 1   
    20    15    16 1   
    21    16    17 1   
    22    17    18 1   
    23    19    20 1   
    24    19    21 1   
    25    21    22 1   
    26    21    23 1   
    27    23    24 1   
    28     1    25 1   
    29     3    45 1   
    30     8    26 1   
    31    10    27 1   
    32    12    28 1   
    33    13    29 1   
    34    14    30 1   
    35    15    31 1   
    36    15    32 1   
    37    16    33 1   
    38    16    34 1   
    39    17    35 1   
    40    17    36 1   
    41    18    37 1   
    42    18    38 1   
    43    19    39 1   
    44    20    40 1   
    45    21    41 1   
    46    23    42 1   
    47    23    43 1   
    48    24    44 1   
@<TRIPOS>SUBSTRUCTURE
     1 3GU         1 TEMP              0 ****  ****    0 ROOT
