@<TRIPOS>MOLECULE
molecule
   26    27     1     0     0
SMALL
bcc


@<TRIPOS>ATOM
      1 O13          0.0000     0.0000     0.0000 o          1 3GV      -0.673500
      2 C9           1.2130     0.0000     0.0000 c          1 3GV       0.704500
      3 C10          2.0800     0.0000     1.2400 c3         1 3GV      -0.137400
      4 N8           1.9830    -0.0050    -1.1020 n          1 3GV      -0.415000
      5 C12          3.4090     0.0070    -0.7570 c3         1 3GV       0.106000
      6 C11          3.4760    -0.4190     0.7270 c3         1 3GV      -0.179700
      7 C14          4.5650     0.3260     1.4540 c          1 3GV       0.896600
      8 O15          4.7020     0.1850     2.7830 o          1 3GV      -0.841300
      9 O16          5.3140     1.0500     0.8440 o          1 3GV      -0.841300
     10 C4           1.4880    -0.0190    -2.4130 ca         1 3GV       0.067600
     11 C5           1.2480    -1.2320    -3.0550 ca         1 3GV       0.134100
     12 O7           1.4940    -2.4040    -2.4120 oh         1 3GV      -0.481100
     13 C6           0.7570    -1.2400    -4.3510 ca         1 3GV      -0.223000
     14 C1           0.5070    -0.0470    -5.0040 ca         1 3GV      -0.106000
     15 C2           0.7450     1.1550    -4.3670 ca         1 3GV      -0.166000
     16 C3           1.2290     1.1730    -3.0720 ca         1 3GV      -0.089000
     17 H10          1.7100    -0.7210     1.9590 hc         1 3GV       0.077200
     18 H10A         2.1190     0.9920     1.6730 hc         1 3GV       0.077200
     19 H12          3.9490    -0.7010    -1.3740 h1         1 3GV       0.056700
     20 H12A         3.8140     1.0040    -0.8780 h1         1 3GV       0.056700
     21 H11          3.6100    -1.4910     0.8120 hc         1 3GV       0.056700
     22 HO7          0.9780    -3.0910    -2.8020 ho         1 3GV       0.411000
     23 H6           0.5700    -2.1820    -4.8530 ha         1 3GV       0.121000
     24 H1           0.1250    -0.0560    -6.0180 ha         1 3GV       0.118000
     25 H2           0.5460     2.0880    -4.8810 ha         1 3GV       0.123000
     26 H3           1.4150     2.1180    -2.5760 ha         1 3GV       0.147000
@<TRIPOS>BOND
     1     2     1 2
     2     3     2 1
     3     2     4 1
     4     6     3 1
     5     3    17 1
     6     3    18 1
     7     5     4 1
     8     4    10 1
     9     6     5 1
    10     5    19 1
    11     5    20 1
    12     7     6 1
    13     6    21 1
    14     9     7 1
    15     7     8 1
    16    10    11 ar
    17    10    16 ar
    18    12    11 1
    19    11    13 ar
    20    12    22 1
    21    13    14 ar
    22    13    23 1
    23    15    14 ar
    24    14    24 1
    25    16    15 ar
    26    15    25 1
    27    16    26 1
@<TRIPOS>SUBSTRUCTURE
     1 3GV         1 TEMP              0 ****  ****    0 ROOT
