@<TRIPOS>MOLECULE
molecule
   34    36     1     0     0
SMALL
bcc


@<TRIPOS>ATOM
      1 CAH          0.0000     0.0000     0.0000 cc         1 3GX      -0.263000
      2 CAG          1.4070     0.0000     0.0000 cc         1 3GX       0.267000
      3 NAB          2.0900     0.0000     1.2050 nh         1 3GX      -0.722400
      4 CAA          1.3890     0.2940     2.4570 c3         1 3GX       0.229100
      5 CAC          3.5290    -0.3000     1.2090 c3         1 3GX       0.236800
      6 CAD          4.1760     0.4860     0.0610 c3         1 3GX      -0.105400
      7 CAE          3.5900    -0.0020    -1.2640 c3         1 3GX       0.005800
      8 CAF          2.0860     0.0040    -1.2050 cd         1 3GX      -0.321400
      9 CAK          1.3530     0.0120    -2.3990 c          1 3GX       0.709700
     10 OAL          1.9390     0.0180    -3.4710 o          1 3GX      -0.675500
     11 NAJ          0.0090     0.0150    -2.3720 ns         1 3GX      -0.418100
     12 CAI         -0.6740     0.0010    -1.1860 cd         1 3GX       0.129400
     13 CAM         -2.1520     0.0020    -1.1900 ca         1 3GX      -0.071800
     14 CAN         -2.8500     0.0030    -2.3980 ca         1 3GX      -0.108500
     15 CAO         -4.2300     0.0030    -2.3950 ca         1 3GX      -0.124500
     16 CAP         -4.9210    -0.0000    -1.1960 ca         1 3GX      -0.115000
     17 CAQ         -4.2360    -0.0030     0.0060 ca         1 3GX      -0.124500
     18 CAR         -2.8550    -0.0070     0.0160 ca         1 3GX      -0.108500
     19 H1          -0.5450    -0.0110     0.9360 ha         1 3GX       0.148000
     20 H3           0.8430     1.2240     2.3550 h1         1 3GX       0.036700
     21 H4           0.6960    -0.5090     2.6800 h1         1 3GX       0.036700
     22 H5           2.1080     0.3840     3.2620 h1         1 3GX       0.036700
     23 H6           3.6810    -1.3610     1.0570 h1         1 3GX       0.045200
     24 H7           3.9630     0.0070     2.1530 h1         1 3GX       0.045200
     25 H8           5.2430     0.2980     0.0640 hc         1 3GX       0.052700
     26 H9           3.9440     1.5380     0.1810 hc         1 3GX       0.052700
     27 H10          3.9250    -1.0180    -1.4370 hc         1 3GX       0.059200
     28 H11          3.9080     0.6700    -2.0520 hc         1 3GX       0.059200
     29 H12         -2.3100     0.0060    -3.3370 ha         1 3GX       0.134500
     30 H13         -4.7730     0.0050    -3.3320 ha         1 3GX       0.136000
     31 H14         -6.0040     0.0010    -1.1990 ha         1 3GX       0.134000
     32 H15         -4.7830    -0.0080     0.9400 ha         1 3GX       0.136000
     33 H16         -2.3200    -0.0090     0.9570 ha         1 3GX       0.134500
     34 H2          -0.5010     0.0170    -3.2330 hn         1 3GX       0.332500
@<TRIPOS>BOND
     1    16    17 ar
     2    16    15 ar
     3    17    18 ar
     4    15    14 ar
     5    18    13 ar
     6    14    13 ar
     7    13    12 1
     8    12     1 2
     9    12    11 1
    10     1     2 1
    11    11     9 1
    12     4     3 1
    13     2     3 1
    14     2     8 2
    15     9     8 1
    16     9    10 2
    17     3     5 1
    18     8     7 1
    19     5     6 1
    20     7     6 1
    21     1    19 1
    22     4    20 1
    23     4    21 1
    24     4    22 1
    25     5    23 1
    26     5    24 1
    27     6    25 1
    28     6    26 1
    29     7    27 1
    30     7    28 1
    31    14    29 1
    32    15    30 1
    33    16    31 1
    34    17    32 1
    35    18    33 1
    36    11    34 1
@<TRIPOS>SUBSTRUCTURE
     1 3GX         1 TEMP              0 ****  ****    0 ROOT
