@<TRIPOS>MOLECULE
3GX
   34    36     1     0     0
SMALL
bcc


@<TRIPOS>ATOM
      1 CAH          0.0000     0.0000     0.0000 cc         1 3GX      -0.251000
      2 CAG          1.4070     0.0000     0.0000 cc         1 3GX       0.140000
      3 NAB          2.0900     0.0000     1.2050 nh         1 3GX      -0.372400
      4 CAA          1.3890     0.2940     2.4570 c3         1 3GX       0.209100
      5 CAC          3.5290    -0.3000     1.2090 c3         1 3GX       0.179800
      6 CAD          4.1760     0.4860     0.0610 c3         1 3GX      -0.050400
      7 CAE          3.5900    -0.0020    -1.2640 c3         1 3GX       0.076800
      8 CAF          2.0860     0.0040    -1.2050 cd         1 3GX      -0.332400
      9 CAK          1.3530     0.0120    -2.3990 c          1 3GX       0.609700
     10 OAL          1.9390     0.0180    -3.4710 o          1 3GX      -0.724500
     11 NAJ          0.0090     0.0150    -2.3720 ns         1 3GX       0.064900
     12 CAI         -0.6740     0.0010    -1.1860 cd         1 3GX      -0.032600
     13 CAM         -2.1520     0.0020    -1.1900 ca         1 3GX      -0.064800
     14 CAN         -2.8500     0.0030    -2.3980 ca         1 3GX      -0.090500
     15 CAO         -4.2300     0.0030    -2.3950 ca         1 3GX      -0.093500
     16 CAP         -4.9210    -0.0000    -1.1960 ca         1 3GX      -0.090000
     17 CAQ         -4.2360    -0.0030     0.0060 ca         1 3GX      -0.093500
     18 CAR         -2.8550    -0.0070     0.0160 ca         1 3GX      -0.090500
     19 H1          -0.5450    -0.0110     0.9360 ha         1 3GX       0.137000
     20 H3           0.8430     1.2240     2.3550 h1         1 3GX       0.005367
     21 H4           0.6960    -0.5090     2.6800 h1         1 3GX       0.005367
     22 H5           2.1080     0.3840     3.2620 h1         1 3GX       0.005367
     23 H6           3.6810    -1.3610     1.0570 h1         1 3GX       0.017200
     24 H7           3.9630     0.0070     2.1530 h1         1 3GX       0.017200
     25 H8           5.2430     0.2980     0.0640 hc         1 3GX       0.023200
     26 H9           3.9440     1.5380     0.1810 hc         1 3GX       0.023200
     27 H10          3.9250    -1.0180    -1.4370 hc         1 3GX       0.029200
     28 H11          3.9080     0.6700    -2.0520 hc         1 3GX       0.029200
     29 H12         -2.3100     0.0060    -3.3370 ha         1 3GX       0.110500
     30 H13         -4.7730     0.0050    -3.3320 ha         1 3GX       0.106500
     31 H14         -6.0040     0.0010    -1.1990 ha         1 3GX       0.105000
     32 H15         -4.7830    -0.0080     0.9400 ha         1 3GX       0.106500
     33 H16         -2.3200    -0.0090     0.9570 ha         1 3GX       0.110500
     34 H2          -0.5010     0.0170    -3.2330 hn         1 3GX       0.173500
@<TRIPOS>BOND
     1     1     2 1   
     2     1    12 2   
     3     1    19 1   
     4     2     3 1   
     5     2     8 2   
     6     3     4 1   
     7     3     5 1   
     8     4    20 1   
     9     4    21 1   
    10     4    22 1   
    11     5     6 1   
    12     5    23 1   
    13     5    24 1   
    14     6     7 1   
    15     6    25 1   
    16     6    26 1   
    17     7     8 1   
    18     7    27 1   
    19     7    28 1   
    20     8     9 1   
    21     9    10 2   
    22     9    11 1   
    23    11    12 1   
    24    11    34 1   
    25    12    13 1   
    26    13    14 ar  
    27    13    18 ar  
    28    14    15 ar  
    29    14    29 1   
    30    15    16 ar  
    31    15    30 1   
    32    16    17 ar  
    33    16    31 1   
    34    17    18 ar  
    35    17    32 1   
    36    18    33 1   
@<TRIPOS>SUBSTRUCTURE
     1 3GX         1 TEMP              0 ****  ****    0 ROOT
