@<TRIPOS>MOLECULE
molecule
   24    24     1     0     0
SMALL
bcc


@<TRIPOS>ATOM
      1 CAA          0.0000     0.0000     0.0000 c3         1 3GY      -0.093100
      2 CAH          1.5300     0.0000     0.0000 c3         1 3GY      -0.076400
      3 CAJ          2.0400     0.0000     1.4430 c3         1 3GY      -0.028400
      4 CAB          1.6360    -1.3070     2.1270 c3         1 3GY      -0.085100
      5 CAI          3.5420     0.1240     1.4440 ca         1 3GY      -0.077300
      6 CAF          4.1470     1.1960     2.0730 ca         1 3GY      -0.125000
      7 CAD          5.5240     1.3090     2.0750 ca         1 3GY      -0.126500
      8 CAC          6.2970     0.3500     1.4480 ca         1 3GY      -0.133000
      9 CAE          5.6930    -0.7210     0.8190 ca         1 3GY      -0.126500
     10 CAG          4.3150    -0.8380     0.8220 ca         1 3GY      -0.125000
     11 H1          -0.3610     0.3650    -0.9540 hc         1 3GY       0.033033
     12 H2          -0.3610    -1.0090     0.1610 hc         1 3GY       0.033033
     13 H3          -0.3610     0.6440     0.7930 hc         1 3GY       0.033033
     14 H4           1.8910    -0.8840    -0.5110 hc         1 3GY       0.044200
     15 H5           1.8910     0.8850    -0.5110 hc         1 3GY       0.044200
     16 H6           1.6080     0.8370     1.9780 hc         1 3GY       0.054700
     17 H7           2.2960    -1.4960     2.9650 hc         1 3GY       0.036367
     18 H8           1.7090    -2.1240     1.4190 hc         1 3GY       0.036367
     19 H9           0.6150    -1.2280     2.4820 hc         1 3GY       0.036367
     20 H10          3.5410     1.9470     2.5650 ha         1 3GY       0.129500
     21 H11          5.9980     2.1500     2.5680 ha         1 3GY       0.128000
     22 H12          7.3770     0.4400     1.4470 ha         1 3GY       0.127000
     23 H13          6.2990    -1.4740     0.3290 ha         1 3GY       0.128000
     24 H14          3.8420    -1.6780     0.3290 ha         1 3GY       0.129500
@<TRIPOS>BOND
     1     1     2 1   
     2     2     3 1   
     3    10     9 ar  
     4    10     5 ar  
     5     9     8 ar  
     6     3     5 1   
     7     3     4 1   
     8     5     6 ar  
     9     8     7 ar  
    10     6     7 ar  
    11     1    11 1   
    12     1    12 1   
    13     1    13 1   
    14     2    14 1   
    15     2    15 1   
    16     3    16 1   
    17     4    17 1   
    18     4    18 1   
    19     4    19 1   
    20     6    20 1   
    21     7    21 1   
    22     8    22 1   
    23     9    23 1   
    24    10    24 1   
@<TRIPOS>SUBSTRUCTURE
     1 3GY         1 TEMP              0 ****  ****    0 ROOT
