@<TRIPOS>MOLECULE
3GY
   24    24     1     0     0
SMALL
bcc


@<TRIPOS>ATOM
      1 CAA        -0.0070    0.2050    0.0320 c3        1 3GY     -0.093100
      2 CAH         1.4750   -0.0660    0.0430 c3        1 3GY     -0.075400
      3 CAJ         2.0450   -0.1120    1.4570 c3        1 3GY     -0.022400
      4 CAB         1.6740   -1.4040    2.1600 c3        1 3GY     -0.087100
      5 CAI         3.5330    0.0610    1.4300 ca        1 3GY     -0.074300
      6 CAF         4.1300    1.1160    2.1300 ca        1 3GY     -0.127000
      7 CAD         5.5150    1.2790    2.1110 ca        1 3GY     -0.129000
      8 CAC         6.3150    0.3920    1.3930 ca        1 3GY     -0.133000
      9 CAE         5.7260   -0.6610    0.6930 ca        1 3GY     -0.129000
     10 CAG         4.3430   -0.8260    0.7110 ca        1 3GY     -0.127000
     11 H1         -0.2350    1.1800    0.5270 hc        1 3GY      0.033033
     12 H2         -0.3810    0.2500   -1.0200 hc        1 3GY      0.033033
     13 H3         -0.5660   -0.6000    0.5680 hc        1 3GY      0.033033
     14 H4          2.0010    0.7380   -0.5370 hc        1 3GY      0.043200
     15 H5          1.6860   -1.0400   -0.4730 hc        1 3GY      0.043200
     16 H6          1.5950    0.7440    2.0400 hc        1 3GY      0.051700
     17 H7          0.5640   -1.5120    2.2080 hc        1 3GY      0.036367
     18 H8          2.0950   -2.2830    1.6150 hc        1 3GY      0.036367
     19 H9          2.0780   -1.4080    3.2010 hc        1 3GY      0.036367
     20 H10         3.5050    1.8200    2.6990 ha        1 3GY      0.130500
     21 H11         5.9750    2.1110    2.6640 ha        1 3GY      0.130000
     22 H12         7.4070    0.5220    1.3780 ha        1 3GY      0.130000
     23 H13         6.3540   -1.3630    0.1250 ha        1 3GY      0.130000
     24 H14         3.8810   -1.6570    0.1570 ha        1 3GY      0.130500
@<TRIPOS>BOND
     1    1    2 1   
     2    1   11 1   
     3    1   12 1   
     4    1   13 1   
     5    2    3 1   
     6    2   14 1   
     7    2   15 1   
     8    3    4 1   
     9    3    5 1   
    10    3   16 1   
    11    4   17 1   
    12    4   18 1   
    13    4   19 1   
    14    5    6 ar  
    15    5   10 ar  
    16    6    7 ar  
    17    6   20 1   
    18    7    8 ar  
    19    7   21 1   
    20    8    9 ar  
    21    8   22 1   
    22    9   10 ar  
    23    9   23 1   
    24   10   24 1   
@<TRIPOS>SUBSTRUCTURE
     1 3GY         1 TEMP              0 ****  ****    0 ROOT
