@<TRIPOS>MOLECULE
3GZ
   30    30     1     0     0
SMALL
bcc


@<TRIPOS>ATOM
      1 CAA         0.0110    0.0010   -0.0380 c3        1 3GZ     -0.093100
      2 CAG         1.5170    0.0000    0.0020 c3        1 3GZ     -0.080400
      3 CAH         2.0350    0.0010    1.4240 c3        1 3GZ     -0.079400
      4 CAI         3.5480    0.0000    1.4600 c3        1 3GZ     -0.080400
      5 CAJ         4.0620    0.0010    2.8830 c3        1 3GZ     -0.076400
      6 CAK         5.5800   -0.0010    2.9150 c3        1 3GZ     -0.037100
      7 CAL         6.0990    0.0000    4.3100 ca        1 3GZ     -0.077300
      8 CAE         6.3440    1.2090    4.9730 ca        1 3GZ     -0.128000
      9 CAC         6.8330    1.2090    6.2780 ca        1 3GZ     -0.128000
     10 CAB         7.0820    0.0030    6.9330 ca        1 3GZ     -0.133000
     11 CAD         6.8400   -1.2040    6.2780 ca        1 3GZ     -0.128000
     12 CAF         6.3510   -1.2070    4.9720 ca        1 3GZ     -0.128000
     13 H1         -0.3980   -0.9040    0.4740 hc        1 3GZ      0.032700
     14 H2         -0.3500    0.0000   -1.0950 hc        1 3GZ      0.032700
     15 H3         -0.3980    0.9060    0.4730 hc        1 3GZ      0.032700
     16 H4          1.9080    0.9020   -0.5390 hc        1 3GZ      0.038700
     17 H5          1.9080   -0.9030   -0.5380 hc        1 3GZ      0.038700
     18 H6          1.6460    0.9040    1.9650 hc        1 3GZ      0.040700
     19 H7          1.6450   -0.9010    1.9660 hc        1 3GZ      0.040700
     20 H8          3.9360   -0.9030    0.9190 hc        1 3GZ      0.038700
     21 H9          3.9370    0.9020    0.9180 hc        1 3GZ      0.038700
     22 H10         3.6780    0.9050    3.4240 hc        1 3GZ      0.044700
     23 H11         3.6750   -0.9010    3.4260 hc        1 3GZ      0.044700
     24 H12         5.9630    0.9010    2.3670 hc        1 3GZ      0.047700
     25 H13         5.9610   -0.9060    2.3690 hc        1 3GZ      0.047700
     26 H14         6.1490    2.1620    4.4580 ha        1 3GZ      0.131000
     27 H15         7.0230    2.1630    6.7910 ha        1 3GZ      0.130000
     28 H16         7.4680    0.0040    7.9620 ha        1 3GZ      0.130000
     29 H17         7.0350   -2.1570    6.7910 ha        1 3GZ      0.130000
     30 H18         6.1610   -2.1610    4.4580 ha        1 3GZ      0.131000
@<TRIPOS>BOND
     1    1    2 1   
     2    1   13 1   
     3    1   14 1   
     4    1   15 1   
     5    2    3 1   
     6    2   16 1   
     7    2   17 1   
     8    3    4 1   
     9    3   18 1   
    10    3   19 1   
    11    4    5 1   
    12    4   20 1   
    13    4   21 1   
    14    5    6 1   
    15    5   22 1   
    16    5   23 1   
    17    6    7 1   
    18    6   24 1   
    19    6   25 1   
    20    7    8 ar  
    21    7   12 ar  
    22    8    9 ar  
    23    8   26 1   
    24    9   10 ar  
    25    9   27 1   
    26   10   11 ar  
    27   10   28 1   
    28   11   12 ar  
    29   11   29 1   
    30   12   30 1   
@<TRIPOS>SUBSTRUCTURE
     1 3GZ         1 TEMP              0 ****  ****    0 ROOT
