@<TRIPOS>MOLECULE
molecule
   30    30     1     0     0
SMALL
bcc


@<TRIPOS>ATOM
      1 CAA          0.0000     0.0000     0.0000 c3         1 3GZ      -0.092100
      2 CAG          1.5300     0.0000     0.0000 c3         1 3GZ      -0.084400
      3 CAH          2.0410     0.0000     1.4420 c3         1 3GZ      -0.081400
      4 CAI          3.5700    -0.0000     1.4430 c3         1 3GZ      -0.083400
      5 CAJ          4.0800     0.0010     2.8850 c3         1 3GZ      -0.077400
      6 CAK          5.6110     0.0000     2.8850 c3         1 3GZ      -0.036100
      7 CAL          6.1130     0.0010     4.3060 ca         1 3GZ      -0.081300
      8 CAE          6.3380     1.1990     4.9590 ca         1 3GZ      -0.126000
      9 CAC          6.7990     1.1990     6.2620 ca         1 3GZ      -0.126000
     10 CAB          7.0330     0.0030     6.9130 ca         1 3GZ      -0.133000
     11 CAD          6.8070    -1.1950     6.2600 ca         1 3GZ      -0.126000
     12 CAF          6.3430    -1.1960     4.9580 ca         1 3GZ      -0.126000
     13 H1          -0.3610    -0.8850     0.5110 hc         1 3GZ       0.032367
     14 H2          -0.3610     0.0000    -1.0210 hc         1 3GZ       0.032367
     15 H3          -0.3610     0.8840     0.5110 hc         1 3GZ       0.032367
     16 H4           1.8910     0.8840    -0.5110 hc         1 3GZ       0.039700
     17 H5           1.8910    -0.8840    -0.5110 hc         1 3GZ       0.039700
     18 H6           1.6790     0.8840     1.9530 hc         1 3GZ       0.041700
     19 H7           1.6790    -0.8840     1.9530 hc         1 3GZ       0.041700
     20 H8           3.9310     0.8840     0.9320 hc         1 3GZ       0.040700
     21 H9           3.9310    -0.8850     0.9330 hc         1 3GZ       0.040700
     22 H10          3.7200     0.8860     3.3950 hc         1 3GZ       0.045700
     23 H11          3.7190    -0.8830     3.3970 hc         1 3GZ       0.045700
     24 H12          5.9720     0.8840     2.3740 hc         1 3GZ       0.047700
     25 H13          5.9710    -0.8850     2.3760 hc         1 3GZ       0.047700
     26 H14          6.1550     2.1370     4.4490 ha         1 3GZ       0.129000
     27 H15          6.9760     2.1380     6.7730 ha         1 3GZ       0.128000
     28 H16          7.3960     0.0040     7.9340 ha         1 3GZ       0.128000
     29 H17          6.9890    -2.1330     6.7710 ha         1 3GZ       0.128000
     30 H18          6.1650    -2.1350     4.4470 ha         1 3GZ       0.129000
@<TRIPOS>BOND
     1     5     6 1   
     2     5     4 1   
     3     6     7 1   
     4     4     3 1   
     5     3     2 1   
     6     8     7 ar  
     7     8     9 ar  
     8     7    12 ar  
     9     2     1 1   
    10     9    10 ar  
    11    12    11 ar  
    12    10    11 ar  
    13     1    13 1   
    14     1    14 1   
    15     1    15 1   
    16     2    16 1   
    17     2    17 1   
    18     3    18 1   
    19     3    19 1   
    20     4    20 1   
    21     4    21 1   
    22     5    22 1   
    23     5    23 1   
    24     6    24 1   
    25     6    25 1   
    26     8    26 1   
    27     9    27 1   
    28    10    28 1   
    29    11    29 1   
    30    12    30 1   
@<TRIPOS>SUBSTRUCTURE
     1 3GZ         1 TEMP              0 ****  ****    0 ROOT
