@<TRIPOS>MOLECULE
3H0
   21    21     1     0     0
SMALL
bcc


@<TRIPOS>ATOM
      1 CAA        -0.0080    0.0000    0.0070 c3        1 3H0     -0.094100
      2 CAG         1.4990    0.0000    0.0050 c3        1 3H0     -0.077400
      3 CAH         2.0510   -0.0000    1.4190 c3        1 3H0     -0.038100
      4 CAI         3.5400   -0.0000    1.4260 ca        1 3H0     -0.077300
      5 CAE         4.2480   -1.2080    1.4300 ca        1 3H0     -0.128000
      6 CAC         5.6410   -1.2070    1.4400 ca        1 3H0     -0.128000
      7 CAB         6.3410   -0.0010    1.4470 ca        1 3H0     -0.133000
      8 CAD         5.6420    1.2060    1.4440 ca        1 3H0     -0.128000
      9 CAF         4.2480    1.2070    1.4340 ca        1 3H0     -0.128000
     10 H1         -0.3960    0.0000   -1.0410 hc        1 3H0      0.033367
     11 H2         -0.4030    0.9050    0.5290 hc        1 3H0      0.033367
     12 H3         -0.4030   -0.9050    0.5280 hc        1 3H0      0.033367
     13 H4          1.8780    0.9030   -0.5420 hc        1 3H0      0.043700
     14 H5          1.8780   -0.9030   -0.5420 hc        1 3H0      0.043700
     15 H6          1.6700   -0.9040    1.9650 hc        1 3H0      0.046700
     16 H7          1.6700    0.9030    1.9660 hc        1 3H0      0.046700
     17 H8          3.6990   -2.1620    1.4250 ha        1 3H0      0.130000
     18 H9          6.1900   -2.1610    1.4430 ha        1 3H0      0.130000
     19 H10         7.4400   -0.0010    1.4550 ha        1 3H0      0.130000
     20 H11         6.1900    2.1590    1.4500 ha        1 3H0      0.130000
     21 H12         3.6990    2.1610    1.4320 ha        1 3H0      0.130000
@<TRIPOS>BOND
     1    1    2 1   
     2    1   10 1   
     3    1   11 1   
     4    1   12 1   
     5    2    3 1   
     6    2   13 1   
     7    2   14 1   
     8    3    4 1   
     9    3   15 1   
    10    3   16 1   
    11    4    5 ar  
    12    4    9 ar  
    13    5    6 ar  
    14    5   17 1   
    15    6    7 ar  
    16    6   18 1   
    17    7    8 ar  
    18    7   19 1   
    19    8    9 ar  
    20    8   20 1   
    21    9   21 1   
@<TRIPOS>SUBSTRUCTURE
     1 3H0         1 TEMP              0 ****  ****    0 ROOT
