@<TRIPOS>MOLECULE
molecule
   21    21     1     0     0
SMALL
bcc


@<TRIPOS>ATOM
      1 CAA          0.0000     0.0000     0.0000 c3         1 3H0      -0.093100
      2 CAG          1.5300     0.0000     0.0000 c3         1 3H0      -0.079400
      3 CAH          2.0400     0.0000     1.4430 c3         1 3H0      -0.036100
      4 CAI          3.5470    -0.0000     1.4430 ca         1 3H0      -0.081300
      5 CAE          4.2380    -1.1980     1.4370 ca         1 3H0      -0.126000
      6 CAC          5.6200    -1.1980     1.4310 ca         1 3H0      -0.126000
      7 CAB          6.3110    -0.0000     1.4320 ca         1 3H0      -0.133000
      8 CAD          5.6200     1.1960     1.4350 ca         1 3H0      -0.126000
      9 CAF          4.2380     1.1960     1.4420 ca         1 3H0      -0.126000
     10 H1          -0.3610     0.8850     0.5110 hc         1 3H0       0.033367
     11 H2          -0.3610    -0.8840     0.5110 hc         1 3H0       0.033367
     12 H3          -0.3610    -0.0000    -1.0210 hc         1 3H0       0.033367
     13 H4           1.8910    -0.8850    -0.5110 hc         1 3H0       0.044700
     14 H5           1.8910     0.8850    -0.5110 hc         1 3H0       0.044700
     15 H6           1.6790    -0.8850     1.9530 hc         1 3H0       0.047700
     16 H7           1.6790     0.8850     1.9530 hc         1 3H0       0.047700
     17 H8           3.6970    -2.1360     1.4370 ha         1 3H0       0.129000
     18 H9           6.1620    -2.1360     1.4280 ha         1 3H0       0.128000
     19 H10          7.3940     0.0000     1.4270 ha         1 3H0       0.128000
     20 H11          6.1620     2.1350     1.4350 ha         1 3H0       0.128000
     21 H12          3.6960     2.1350     1.4450 ha         1 3H0       0.129000
@<TRIPOS>BOND
     1     6     7 ar
     2     6     5 ar
     3     7     8 ar
     4     5     4 ar
     5     8     9 ar
     6     4     9 ar
     7     4     3 1
     8     3     2 1
     9     2     1 1
    10     1    10 1
    11     1    11 1
    12     1    12 1
    13     2    13 1
    14     2    14 1
    15     3    15 1
    16     3    16 1
    17     5    17 1
    18     6    18 1
    19     7    19 1
    20     8    20 1
    21     9    21 1
@<TRIPOS>SUBSTRUCTURE
     1 3H0         1 TEMP              0 ****  ****    0 ROOT
