@<TRIPOS>MOLECULE
3H1
   57    58     1     0     0
SMALL
bcc


@<TRIPOS>ATOM
      1 C01         0.7790    0.0250   -0.0330 ca        1 3H1      0.250100
      2 C02         2.0050    0.2020    0.6470 ca        1 3H1     -0.320600
      3 C03         1.9900    0.5060    2.0290 ca        1 3H1      0.058700
      4 C04         0.7720    0.6270    2.6970 ca        1 3H1     -0.124600
      5 C05        -0.4490    0.4410    2.0050 ca        1 3H1      0.207100
      6 C06        -0.4630    0.1300    0.6390 ca        1 3H1     -0.163300
      7 C07         3.2920    0.0770   -0.0400 c         1 3H1      0.591500
      8 C08         3.2730    0.6980    2.7530 c3        1 3H1     -0.079800
      9 O09         0.6680   -0.2510   -1.3630 oh        1 3H1     -0.492100
     10 O10         3.4180   -0.1360   -1.2530 o         1 3H1     -0.568100
     11 O11        -1.6730    0.5600    2.6080 oh        1 3H1     -0.478100
     12 CL12        0.7080    0.9990    4.3640 cl        1 3H1     -0.090400
     13 C13        -1.7470   -0.0620   -0.0910 c3        1 3H1      0.014100
     14 C14        -2.1940   -1.4770   -0.1030 c2        1 3H1     -0.137200
     15 C15        -3.3600   -1.9030   -0.6290 ce        1 3H1     -0.097200
     16 C16        -4.3400   -0.9890   -1.2660 c3        1 3H1     -0.058900
     17 C17        -3.6940   -3.3210   -0.5810 ce        1 3H1     -0.122000
     18 C18        -4.8830   -3.8320   -0.9270 c2        1 3H1     -0.162200
     19 C19        -5.2590   -5.2840   -0.8790 c3        1 3H1      0.003200
     20 C20        -6.3140   -5.4630    0.2370 c3        1 3H1     -0.058700
     21 C21        -6.8730   -6.8770    0.2650 c3        1 3H1     -0.070400
     22 C22        -7.4760   -7.2740   -1.0640 c3        1 3H1     -0.183400
     23 C23        -6.5100   -7.0300   -2.1900 c         1 3H1      0.572100
     24 C24        -5.9210   -5.6400   -2.2320 c3        1 3H1     -0.154700
     25 C25        -5.7780   -5.1000    1.6060 c3        1 3H1     -0.093100
     26 O26        -6.2540   -7.8970   -3.0300 o         1 3H1     -0.530100
     27 C27        -4.9700   -5.4780   -3.3970 c3        1 3H1     -0.086100
     28 C28        -4.0530   -6.1820   -0.6480 c3        1 3H1     -0.091100
     29 H07         4.2020    0.1820    0.5950 h4        1 3H1      0.011200
     30 H08         3.1180    0.9590    3.8290 hc        1 3H1      0.061700
     31 H08A        3.8610    1.5270    2.2840 hc        1 3H1      0.061700
     32 H08B        3.8790   -0.2430    2.7160 hc        1 3H1      0.061700
     33 HO09        1.5430   -0.3010   -1.7850 ho        1 3H1      0.465000
     34 HO11       -1.5380    0.7830    3.5460 ho        1 3H1      0.436000
     35 H13        -1.6200    0.2950   -1.1530 hc        1 3H1      0.073200
     36 H13A       -2.5400    0.5780    0.3900 hc        1 3H1      0.073200
     37 H14        -1.4980   -2.2010    0.3540 ha        1 3H1      0.125000
     38 H16        -4.6300   -1.3750   -2.2750 hc        1 3H1      0.042033
     39 H16A       -5.2630   -0.9180   -0.6370 hc        1 3H1      0.042033
     40 H16B       -3.9240    0.0410   -1.3950 hc        1 3H1      0.042033
     41 H18        -5.7000   -3.1750   -1.2730 ha        1 3H1      0.121000
     42 H20        -7.1610   -4.7570   -0.0030 hc        1 3H1      0.046700
     43 H21        -7.6610   -6.9430    1.0610 hc        1 3H1      0.049200
     44 H21A       -6.0600   -7.5990    0.5420 hc        1 3H1      0.049200
     45 H22        -8.4010   -6.6700   -1.2640 hc        1 3H1      0.067200
     46 H22A       -7.7730   -8.3560   -1.0420 hc        1 3H1      0.067200
     47 H24        -6.7900   -4.9340   -2.3800 hc        1 3H1      0.064700
     48 H25        -6.6220   -5.0020    2.3300 hc        1 3H1      0.039033
     49 H25A       -5.2260   -4.1300    1.5650 hc        1 3H1      0.039033
     50 H25B       -5.0830   -5.8870    1.9870 hc        1 3H1      0.039033
     51 H27        -4.1850   -6.2730   -3.3770 hc        1 3H1      0.045367
     52 H27A       -4.4760   -4.4780   -3.3580 hc        1 3H1      0.045367
     53 H27B       -5.5300   -5.5740   -4.3580 hc        1 3H1      0.045367
     54 H28        -4.3370   -7.2540   -0.7830 hc        1 3H1      0.042367
     55 H28A       -3.6510   -6.0450    0.3840 hc        1 3H1      0.042367
     56 H28B       -3.2450   -5.9400   -1.3800 hc        1 3H1      0.042367
     57 H29        -2.8810   -3.9780   -0.2230 ha        1 3H1      0.125000
@<TRIPOS>BOND
     1    1    2 ar  
     2    1    6 ar  
     3    1    9 1   
     4    2    3 ar  
     5    2    7 1   
     6    3    4 ar  
     7    3    8 1   
     8    4    5 ar  
     9    4   12 1   
    10    5    6 ar  
    11    5   11 1   
    12    6   13 1   
    13    7   10 2   
    14    7   29 1   
    15    8   30 1   
    16    8   31 1   
    17    8   32 1   
    18    9   33 1   
    19   11   34 1   
    20   13   14 1   
    21   13   35 1   
    22   13   36 1   
    23   14   15 2   
    24   14   37 1   
    25   15   16 1   
    26   15   17 1   
    27   16   38 1   
    28   16   39 1   
    29   16   40 1   
    30   17   18 2   
    31   17   57 1   
    32   18   19 1   
    33   18   41 1   
    34   19   20 1   
    35   19   24 1   
    36   19   28 1   
    37   20   21 1   
    38   20   25 1   
    39   20   42 1   
    40   21   22 1   
    41   21   43 1   
    42   21   44 1   
    43   22   23 1   
    44   22   45 1   
    45   22   46 1   
    46   23   24 1   
    47   23   26 2   
    48   24   27 1   
    49   24   47 1   
    50   25   48 1   
    51   25   49 1   
    52   25   50 1   
    53   27   51 1   
    54   27   52 1   
    55   27   53 1   
    56   28   54 1   
    57   28   55 1   
    58   28   56 1   
@<TRIPOS>SUBSTRUCTURE
     1 3H1         1 TEMP              0 ****  ****    0 ROOT
