@<TRIPOS>MOLECULE
molecule
   57    58     1     0     0
SMALL
bcc


@<TRIPOS>ATOM
      1 C01          0.0000     0.0000     0.0000 ca         1 3H1       0.203100
      2 C02          1.4070     0.0000     0.0000 ca         1 3H1      -0.255600
      3 C03          2.1000     0.0000     1.2190 ca         1 3H1       0.001700
      4 C04          1.4110    -0.0010     2.3970 ca         1 3H1      -0.059600
      5 C05          0.0180    -0.0020     2.3990 ca         1 3H1       0.185100
      6 C06         -0.6840    -0.0000     1.2030 ca         1 3H1      -0.092300
      7 C07          2.1430     0.0010    -1.2660 c          1 3H1       0.584500
      8 C08          3.6070    -0.0000     1.2270 c3         1 3H1      -0.064800
      9 O09         -0.6810     0.0060    -1.1720 oh         1 3H1      -0.495100
     10 O10          1.5390     0.0000    -2.3180 o          1 3H1      -0.524100
     11 O11         -0.6550    -0.0030     3.5770 oh         1 3H1      -0.488100
     12 Cl12         2.2770    -0.0010     3.9020 cl         1 3H1      -0.096400
     13 C13         -2.1910     0.0000     1.2130 c3         1 3H1      -0.032900
     14 C14         -2.6940    -1.4210     1.2160 c2         1 3H1      -0.440200
     15 C15         -3.5570    -1.8210     0.2890 ce         1 3H1       0.067800
     16 C16         -4.1360    -0.8260    -0.6830 c3         1 3H1      -0.128900
     17 C17         -3.9480    -3.2380     0.2110 ce         1 3H1      -0.135000
     18 C18         -4.8110    -3.6380    -0.7170 c2         1 3H1      -0.138200
     19 C19         -5.2110    -5.0890    -0.7970 c3         1 3H1      -0.019800
     20 C20         -6.7220    -5.2130    -0.5970 c3         1 3H1      -0.064700
     21 C21         -7.1250    -6.6890    -0.5870 c3         1 3H1      -0.073400
     22 C22         -6.8190    -7.3090    -1.9550 c3         1 3H1      -0.182400
     23 C23         -5.3620    -7.0620    -2.2780 c          1 3H1       0.571100
     24 C24         -4.8320    -5.6480    -2.1720 c3         1 3H1      -0.158700
     25 C25         -7.1130    -4.5710     0.7360 c3         1 3H1      -0.090100
     26 O26         -4.6390    -7.9700    -2.6140 o          1 3H1      -0.520100
     27 C27         -3.3090    -5.6570    -2.3210 c3         1 3H1      -0.084100
     28 C28         -4.4860    -5.8800     0.2940 c3         1 3H1      -0.095100
     29 H07          3.2260     0.0290    -1.2630 h4         1 3H1       0.004200
     30 H08          3.9710     0.8860     0.7220 hc         1 3H1       0.057033
     31 H08A         3.9620    -0.0040     2.2500 hc         1 3H1       0.057033
     32 H08B         3.9700    -0.8830     0.7150 hc         1 3H1       0.057033
     33 HO09        -0.6320     0.8640    -1.5600 ho         1 3H1       0.433000
     34 HO11        -0.3660     0.7220     4.1050 ho         1 3H1       0.426000
     35 H13         -2.5580     0.5110     0.3310 hc         1 3H1       0.041200
     36 H13A        -2.5470     0.5110     2.1000 hc         1 3H1       0.041200
     37 H14         -3.2620    -0.6150     1.6640 ha         1 3H1       0.299000
     38 H16         -5.1240    -1.1510    -0.9870 hc         1 3H1       0.053033
     39 H16A        -4.2050     0.1450    -0.2080 hc         1 3H1       0.053033
     40 H16B        -3.4950    -0.7570    -1.5540 hc         1 3H1       0.053033
     41 H18         -5.2260    -2.9220    -1.4160 ha         1 3H1       0.128000
     42 H20         -7.2330    -4.7080    -1.4080 hc         1 3H1       0.051700
     43 H21         -8.1860    -6.7720    -0.3850 hc         1 3H1       0.052700
     44 H21A        -6.5640    -7.2110     0.1790 hc         1 3H1       0.052700
     45 H22         -7.4420    -6.8460    -2.7110 hc         1 3H1       0.067700
     46 H22A        -7.0080    -8.3750    -1.9210 hc         1 3H1       0.067700
     47 H24         -5.2760    -5.0360    -2.9470 hc         1 3H1       0.071700
     48 H25         -8.1920    -4.5610     0.8290 hc         1 3H1       0.038700
     49 H25A        -6.7380    -3.5550     0.7720 hc         1 3H1       0.038700
     50 H25B        -6.6860    -5.1430     1.5510 hc         1 3H1       0.038700
     51 H27         -2.8970    -6.4960    -1.7730 hc         1 3H1       0.047033
     52 H27A        -2.9020    -4.7340    -1.9280 hc         1 3H1       0.047033
     53 H27B        -3.0500    -5.7490    -3.3690 hc         1 3H1       0.047033
     54 H28         -4.7100    -6.9340     0.1850 hc         1 3H1       0.046700
     55 H28A        -3.4170    -5.7270     0.2000 hc         1 3H1       0.046700
     56 H28B        -4.8160    -5.5380     1.2670 hc         1 3H1       0.046700
     57 H29         -3.5330    -3.9530     0.9100 ha         1 3H1       0.163000
@<TRIPOS>BOND
     1     1     2 ar  
     2     1     6 ar  
     3     1     9 1   
     4     2     3 ar  
     5     2     7 1   
     6     3     4 ar  
     7     3     8 1   
     8     4     5 ar  
     9     4    12 1   
    10     5     6 ar  
    11     5    11 1   
    12     6    13 1   
    13     7    10 2   
    14     7    29 1   
    15     8    30 1   
    16     8    31 1   
    17     8    32 1   
    18     9    33 1   
    19    11    34 1   
    20    13    14 1   
    21    13    35 1   
    22    13    36 1   
    23    14    15 2   
    24    14    37 1   
    25    15    16 1   
    26    15    17 1   
    27    16    38 1   
    28    16    39 1   
    29    16    40 1   
    30    17    18 2   
    31    18    19 1   
    32    18    41 1   
    33    19    20 1   
    34    19    24 1   
    35    19    28 1   
    36    20    21 1   
    37    20    25 1   
    38    20    42 1   
    39    21    22 1   
    40    21    43 1   
    41    21    44 1   
    42    22    23 1   
    43    22    45 1   
    44    22    46 1   
    45    23    24 1   
    46    23    26 2   
    47    24    27 1   
    48    24    47 1   
    49    25    48 1   
    50    25    49 1   
    51    25    50 1   
    52    27    51 1   
    53    27    52 1   
    54    27    53 1   
    55    28    54 1   
    56    28    55 1   
    57    28    56 1   
    58    17    57 1   
@<TRIPOS>SUBSTRUCTURE
     1 3H1         1 TEMP              0 ****  ****    0 ROOT
