@<TRIPOS>MOLECULE
molecule
   27    27     1     0     0
SMALL
bcc


@<TRIPOS>ATOM
      1 CAA          0.0000     0.0000     0.0000 c3         1 3H2      -0.092100
      2 CAG          1.5310     0.0000     0.0000 c3         1 3H2      -0.084400
      3 CAH          2.0400     0.0000     1.4430 c3         1 3H2      -0.083400
      4 CAI          3.5710     0.0000     1.4430 c3         1 3H2      -0.077400
      5 CAJ          4.0810     0.0000     2.8850 c3         1 3H2      -0.036100
      6 CAK          5.5880     0.0000     2.8850 ca         1 3H2      -0.081300
      7 CAE          6.2790     1.1980     2.8850 ca         1 3H2      -0.126000
      8 CAC          7.6610     1.1980     2.8850 ca         1 3H2      -0.126000
      9 CAB          8.3530     0.0000     2.8840 ca         1 3H2      -0.133000
     10 CAD          7.6620    -1.1960     2.8840 ca         1 3H2      -0.126000
     11 CAF          6.2790    -1.1960     2.8900 ca         1 3H2      -0.126000
     12 H1          -0.3610     0.8850     0.5110 hc         1 3H2       0.032700
     13 H2          -0.3610    -0.8840     0.5110 hc         1 3H2       0.032700
     14 H3          -0.3610    -0.0000    -1.0210 hc         1 3H2       0.032700
     15 H4           1.8920     0.8850    -0.5110 hc         1 3H2       0.040700
     16 H5           1.8920    -0.8850    -0.5110 hc         1 3H2       0.040700
     17 H6           1.6790    -0.8850     1.9530 hc         1 3H2       0.040700
     18 H7           1.6790     0.8850     1.9530 hc         1 3H2       0.040700
     19 H8           3.9320     0.8850     0.9320 hc         1 3H2       0.045700
     20 H9           3.9320    -0.8850     0.9320 hc         1 3H2       0.045700
     21 H10          3.7200    -0.8850     3.3960 hc         1 3H2       0.047700
     22 H11          3.7200     0.8850     3.3960 hc         1 3H2       0.047700
     23 H12          5.7370     2.1360     2.8860 ha         1 3H2       0.129000
     24 H13          8.2030     2.1360     2.8850 ha         1 3H2       0.128000
     25 H14          9.4360     0.0000     2.8820 ha         1 3H2       0.128000
     26 H15          8.2030    -2.1350     2.8860 ha         1 3H2       0.128000
     27 H16          5.7370    -2.1350     2.8900 ha         1 3H2       0.129000
@<TRIPOS>BOND
     1    10    11 ar  
     2    10     9 ar  
     3    11     6 ar  
     4     4     5 1   
     5     4     3 1   
     6     9     8 ar  
     7     6     5 1   
     8     6     7 ar  
     9     2     3 1   
    10     2     1 1   
    11     7     8 ar  
    12     1    12 1   
    13     1    13 1   
    14     1    14 1   
    15     2    15 1   
    16     2    16 1   
    17     3    17 1   
    18     3    18 1   
    19     4    19 1   
    20     4    20 1   
    21     5    21 1   
    22     5    22 1   
    23     7    23 1   
    24     8    24 1   
    25     9    25 1   
    26    10    26 1   
    27    11    27 1   
@<TRIPOS>SUBSTRUCTURE
     1 3H2         1 TEMP              0 ****  ****    0 ROOT
