@<TRIPOS>MOLECULE
3H2
   27    27     1     0     0
SMALL
bcc


@<TRIPOS>ATOM
      1 CAA        -0.0090    0.0000    0.0050 c3        1 3H2     -0.093100
      2 CAG         1.4970   -0.0000    0.0170 c3        1 3H2     -0.080400
      3 CAH         2.0420    0.0000    1.4300 c3        1 3H2     -0.080400
      4 CAI         3.5550   -0.0000    1.4340 c3        1 3H2     -0.076400
      5 CAJ         4.0960    0.0000    2.8520 c3        1 3H2     -0.037100
      6 CAK         5.5850    0.0000    2.8710 ca        1 3H2     -0.077300
      7 CAE         6.2930    1.2080    2.8790 ca        1 3H2     -0.128000
      8 CAC         7.6860    1.2070    2.9000 ca        1 3H2     -0.128000
      9 CAB         8.3860    0.0010    2.9120 ca        1 3H2     -0.133000
     10 CAD         7.6860   -1.2060    2.9040 ca        1 3H2     -0.128000
     11 CAF         6.2930   -1.2070    2.8830 ca        1 3H2     -0.128000
     12 H1         -0.3900    0.0000   -1.0440 hc        1 3H2      0.032700
     13 H2         -0.4080   -0.9040    0.5250 hc        1 3H2      0.032700
     14 H3         -0.4080    0.9060    0.5240 hc        1 3H2      0.032700
     15 H4          1.8790    0.9020   -0.5310 hc        1 3H2      0.039700
     16 H5          1.8780   -0.9030   -0.5300 hc        1 3H2      0.039700
     17 H6          1.6630   -0.9020    1.9780 hc        1 3H2      0.039700
     18 H7          1.6630    0.9030    1.9770 hc        1 3H2      0.039700
     19 H8          3.9360    0.9020    0.8880 hc        1 3H2      0.044700
     20 H9          3.9360   -0.9040    0.8890 hc        1 3H2      0.044700
     21 H10         3.7110    0.9040    3.3960 hc        1 3H2      0.047700
     22 H11         3.7110   -0.9030    3.3970 hc        1 3H2      0.047700
     23 H12         5.7440    2.1610    2.8700 ha        1 3H2      0.131000
     24 H13         8.2350    2.1610    2.9060 ha        1 3H2      0.130000
     25 H14         9.4850    0.0010    2.9290 ha        1 3H2      0.130000
     26 H15         8.2350   -2.1590    2.9140 ha        1 3H2      0.130000
     27 H16         5.7440   -2.1610    2.8770 ha        1 3H2      0.131000
@<TRIPOS>BOND
     1    1    2 1   
     2    1   12 1   
     3    1   13 1   
     4    1   14 1   
     5    2    3 1   
     6    2   15 1   
     7    2   16 1   
     8    3    4 1   
     9    3   17 1   
    10    3   18 1   
    11    4    5 1   
    12    4   19 1   
    13    4   20 1   
    14    5    6 1   
    15    5   21 1   
    16    5   22 1   
    17    6    7 ar  
    18    6   11 ar  
    19    7    8 ar  
    20    7   23 1   
    21    8    9 ar  
    22    8   24 1   
    23    9   10 ar  
    24    9   25 1   
    25   10   11 ar  
    26   10   26 1   
    27   11   27 1   
@<TRIPOS>SUBSTRUCTURE
     1 3H2         1 TEMP              0 ****  ****    0 ROOT
