@<TRIPOS>MOLECULE
3H3
   68    71     1     0     0
SMALL
bcc


@<TRIPOS>ATOM
      1 C7           0.0000     0.0000     0.0000 DU         1 3H3       0.069000
      2 C8           1.4580     0.0000     0.0000 c2         1 3H3      -0.110000
      3 C2           3.7630     2.2330    -2.3700 c2         1 3H3      -0.135000
      4 C3           2.4160     1.6480    -2.4600 c2         1 3H3       0.027000
      5 C4           1.2200     2.3910    -2.0500 c2         1 3H3      -0.088000
      6 C5           0.0380     1.9690    -1.5950 c2         1 3H3      -0.210000
      7 C6          -0.4500     0.5550    -1.3680 c3         1 3H3      -0.059000
      8 C1           5.0930     1.4960    -2.2320 c3         1 3H3      -0.037000
      9 O1           3.9450     0.1940    -0.6030 os         1 3H3      -0.243000
     10 C23         10.4430     1.2470    -8.6160 c2         1 3H3       0.246500
     11 N           11.7380     0.7900    -8.5440 ns         1 3H3       0.016000
     12 C22         12.2070    -0.2010    -7.7180 c2         1 3H3       0.246500
     13 C21         11.2250    -0.8030    -6.7510 c3         1 3H3      -0.138500
     14 C24          9.4280     0.5830    -7.7400 c3         1 3H3      -0.138500
     15 C20         10.0300     0.0960    -6.4310 c3         1 3H3      -0.083000
     16 C19          8.9680    -0.5950    -5.5910 c3         1 3H3      -0.103000
     17 C18          9.4600    -0.8910    -4.1860 c3         1 3H3       0.082000
     18 O5          10.1130     0.2750    -3.6740 oh         1 3H3      -0.321000
     19 C16          8.9350    -2.0450    -2.0040 c2         1 3H3       0.288000
     20 O2          10.1150    -2.2800    -1.8290 o          1 3H3      -0.315000
     21 C14          7.9030    -2.4360    -0.9260 c3         1 3H3      -0.092000
     22 C15          8.4420    -3.0960     0.3060 c3         1 3H3      -0.092000
     23 C13          7.0810    -1.1740    -0.6030 c2         1 3H3      -0.113000
     24 C12          5.9450    -0.8370    -1.1610 c2         1 3H3      -0.157000
     25 C25          5.1810    -1.8350    -1.9730 c3         1 3H3      -0.094000
     26 C11          5.2710     0.5200    -1.0260 c3         1 3H3       0.130000
     27 C            5.3240     0.9840    -3.6600 c3         1 3H3      -0.133000
     28 C10          3.7210     0.0950     0.7270 c3         1 3H3       0.364000
     29 O            4.5970     0.1350     1.5690 o          1 3H3      -0.405000
     30 C9           2.2740     0.0000     1.0150 c2         1 3H3      -0.052000
     31 H1          -0.3700     0.6340     0.7960 ha         1 3H3       0.056500
     32 H2          -0.3700    -1.0100     0.1290 ha         1 3H3       0.056500
     33 H3           0.8770    -0.7600     0.5080 DU         1 3H3       0.049000
     34 H4           4.1540     1.8790    -3.3160 ha         1 3H3       0.069000
     35 H6           1.9680     2.2120    -3.2690 ha         1 3H3       0.033000
     36 H8           1.3340     3.4660    -2.1280 ha         1 3H3       0.112000
     37 H9          -0.6880     2.7380    -1.3600 ha         1 3H3       0.093000
     38 H10         -0.0600    -0.0830    -2.1520 hc         1 3H3       0.053000
     39 H11         -1.5330     0.5450    -1.4120 hc         1 3H3       0.053000
     40 H12          5.8380     2.2660    -2.0760 hc         1 3H3       0.072000
     41 H14         10.8530    -1.7300    -7.1720 hc         1 3H3       0.085750
     42 H15         11.7450    -1.0230    -5.8260 hc         1 3H3       0.085750
     43 H16          8.6380     1.2910    -7.5200 hc         1 3H3       0.085750
     44 H17          9.0100    -0.2650    -8.2700 hc         1 3H3       0.085750
     45 H18         10.3930     0.9580    -5.8840 hc         1 3H3       0.095000
     46 H19          8.6900    -1.5250    -6.0710 hc         1 3H3       0.061500
     47 H20          8.0960     0.0450    -5.5310 hc         1 3H3       0.061500
     48 H21         10.2000    -1.6800    -4.2570 h1         1 3H3       0.051000
     49 H22         10.9510     0.0340    -3.3140 ho         1 3H3       0.204000
     50 H25          7.2240    -3.1440    -1.3860 hc         1 3H3       0.074000
     51 H26          8.9640    -4.0040     0.0290 hc         1 3H3       0.051667
     52 H27          7.6240    -3.3390     0.9730 hc         1 3H3       0.051667
     53 H28          9.1280    -2.4230     0.8060 hc         1 3H3       0.051667
     54 H29          7.5880    -0.4180    -0.0150 ha         1 3H3       0.109000
     55 H30          5.7620    -2.1130    -2.8440 hc         1 3H3       0.054667
     56 H31          4.2410    -1.4000    -2.2900 hc         1 3H3       0.054667
     57 H32          4.9860    -2.7160    -1.3730 hc         1 3H3       0.054667
     58 H33          5.7620     1.0600    -0.2260 h1         1 3H3       0.079000
     59 H34          5.4400     1.8270    -4.3310 hc         1 3H3       0.057667
     60 H35          6.2210     0.3770    -3.6860 hc         1 3H3       0.057667
     61 H36          4.4750     0.3880    -3.9720 hc         1 3H3       0.057667
     62 H37          2.8880    -0.8710     0.8220 DU         1 3H3       0.042000
     63 C17          8.3800    -1.3590    -3.2210 c3         1 3H3      -0.193000
     64 H13         12.4030     1.2220    -9.1530 hn         1 3H3       0.103000
     65 O3          13.3760    -0.5720    -7.8060 o          1 3H3      -0.354500
     66 O4          10.1610     2.1710    -9.3550 o          1 3H3      -0.354500
     67 H23          7.8020    -0.4990    -2.9020 hc         1 3H3       0.095000
     68 H24          7.7230    -2.0470    -3.7390 hc         1 3H3       0.095000
@<TRIPOS>BOND
     1     1     2 1   
     2     1     7 1   
     3     1    31 1   
     4     1    32 1   
     5     1    33 1   
     6     2    30 1   
     7     2    33 1   
     8     3     4 1   
     9     3     8 1   
    10     3    34 1   
    11     4     5 1   
    12     4    35 1   
    13     5     6 1   
    14     5    36 1   
    15     6     7 1   
    16     6    37 1   
    17     7    38 1   
    18     7    39 1   
    19     8    26 1   
    20     8    27 1   
    21     8    40 1   
    22     9    26 1   
    23     9    28 1   
    24    10    11 1   
    25    10    14 1   
    26    10    66 1   
    27    11    12 1   
    28    11    64 1   
    29    12    13 1   
    30    12    65 1   
    31    13    15 1   
    32    13    41 1   
    33    13    42 1   
    34    14    15 1   
    35    14    43 1   
    36    14    44 1   
    37    15    16 1   
    38    15    45 1   
    39    16    17 1   
    40    16    46 1   
    41    16    47 1   
    42    17    18 1   
    43    17    48 1   
    44    17    63 1   
    45    18    49 1   
    46    19    20 1   
    47    19    21 1   
    48    19    63 1   
    49    21    22 1   
    50    21    23 1   
    51    21    50 1   
    52    22    51 1   
    53    22    52 1   
    54    22    53 1   
    55    23    24 1   
    56    23    54 1   
    57    24    25 1   
    58    24    26 1   
    59    25    55 1   
    60    25    56 1   
    61    25    57 1   
    62    26    58 1   
    63    27    59 1   
    64    27    60 1   
    65    27    61 1   
    66    28    29 1   
    67    28    30 1   
    68    28    62 1   
    69    30    62 1   
    70    63    67 1   
    71    63    68 1   
@<TRIPOS>SUBSTRUCTURE
     1 3H3         1 TEMP              0 ****  ****    0 ROOT
