@<TRIPOS>MOLECULE
molecule
   68    69     1     0     0
SMALL
bcc


@<TRIPOS>ATOM
      1 C7           0.0000     0.0000     0.0000 c3         1 3H3      -0.093200
      2 C8           1.4580     0.0000     0.0000 c2         1 3H3      -0.153200
      3 C2           3.7630     2.2330    -2.3700 c2         1 3H3      -0.027200
      4 C3           2.4160     1.6480    -2.4600 ce         1 3H3      -0.145000
      5 C4           1.2200     2.3910    -2.0500 ce         1 3H3      -0.226000
      6 C5           0.0380     1.9690    -1.5950 c2         1 3H3      -0.335200
      7 C6          -0.4500     0.5550    -1.3680 c3         1 3H3       0.023800
      8 C1           5.0930     1.4960    -2.2320 c3         1 3H3      -0.044500
      9 O1           3.9450     0.1940    -0.6030 os         1 3H3      -0.451900
     10 C23         10.4430     1.2470    -8.6160 c          1 3H3       0.716500
     11 N           11.7380     0.7900    -8.5440 ns         1 3H3      -0.601500
     12 C22         12.2070    -0.2010    -7.7180 c          1 3H3       0.716500
     13 C21         11.2250    -0.8030    -6.7510 c3         1 3H3      -0.160900
     14 C24          9.4280     0.5830    -7.7400 c3         1 3H3      -0.160900
     15 C20         10.0300     0.0960    -6.4310 c3         1 3H3      -0.066700
     16 C19          8.9680    -0.5950    -5.5910 c3         1 3H3      -0.070400
     17 C18          9.4600    -0.8910    -4.1860 c3         1 3H3       0.154100
     18 O5          10.1130     0.2750    -3.6740 oh         1 3H3      -0.605800
     19 C16          8.9350    -2.0450    -2.0040 c          1 3H3       0.595100
     20 O2          10.1150    -2.2800    -1.8290 o          1 3H3      -0.513100
     21 C14          7.9030    -2.4360    -0.9260 c3         1 3H3      -0.003500
     22 C15          8.4420    -3.0960     0.3060 c3         1 3H3      -0.096100
     23 C13          7.0810    -1.1740    -0.6030 c2         1 3H3      -0.505200
     24 C12          5.9450    -0.8370    -1.1610 c2         1 3H3       0.068600
     25 C25          5.1810    -1.8350    -1.9730 c3         1 3H3      -0.133900
     26 C11          5.2710     0.5200    -1.0260 c3         1 3H3       0.188300
     27 C            5.3240     0.9840    -3.6600 c3         1 3H3      -0.091100
     28 C10          3.7210     0.0950     0.7270 c          1 3H3       0.630300
     29 O            4.5970     0.1350     1.5690 o          1 3H3      -0.497000
     30 C9           2.2740     0.0000     1.0150 ce         1 3H3      -0.186200
     31 H1          -0.3700    -1.0100     0.1290 hc         1 3H3       0.083700
     32 H2          -0.3700     0.6340     0.7960 hc         1 3H3       0.083700
     33 H3           1.9100     0.0650    -0.9820 ha         1 3H3       0.134000
     34 H4           3.8080     3.2570    -2.0170 ha         1 3H3       0.150000
     35 H6           2.3350     0.5680    -2.4480 ha         1 3H3       0.069000
     36 H8           1.2010     1.4070    -2.5020 ha         1 3H3       0.171000
     37 H9           0.6270     1.1880    -1.1300 ha         1 3H3       0.173000
     38 H10         -1.5330     0.5450    -1.4120 hc         1 3H3       0.049700
     39 H11         -0.0600    -0.0830    -2.1520 hc         1 3H3       0.049700
     40 H12          5.8380     2.2660    -2.0760 hc         1 3H3       0.074700
     41 H14         10.8530    -1.7300    -7.1720 hc         1 3H3       0.078450
     42 H15         11.7450    -1.0230    -5.8260 hc         1 3H3       0.078450
     43 H16          8.6380     1.2910    -7.5210 hc         1 3H3       0.078450
     44 H17          9.0100    -0.2650    -8.2700 hc         1 3H3       0.078450
     45 H18         10.3930     0.9580    -5.8840 hc         1 3H3       0.085700
     46 H19          8.6900    -1.5250    -6.0710 hc         1 3H3       0.050700
     47 H20          8.0960     0.0450    -5.5310 hc         1 3H3       0.050700
     48 H21         10.2000    -1.6800    -4.2570 h1         1 3H3       0.039700
     49 H22         10.9410     0.0300    -3.2950 ho         1 3H3       0.418000
     50 H25          7.2240    -3.1440    -1.3860 hc         1 3H3       0.013700
     51 H26          7.6200    -3.4680     0.9060 hc         1 3H3       0.058033
     52 H27          9.0130    -2.3770     0.8810 hc         1 3H3       0.058033
     53 H28          9.0830    -3.9220     0.0220 hc         1 3H3       0.058033
     54 H29          6.7430    -2.1210    -0.1990 ha         1 3H3       0.204000
     55 H30          4.2800    -1.3730    -2.3590 hc         1 3H3       0.056033
     56 H31          5.7950    -2.1750    -2.7990 hc         1 3H3       0.056033
     57 H32          4.9150    -2.6800    -1.3500 hc         1 3H3       0.056033
     58 H33          5.7620     1.0600    -0.2260 h1         1 3H3       0.104700
     59 H34          6.3720     0.7420    -3.7920 hc         1 3H3       0.045700
     60 H35          4.7250     0.0980    -3.8280 hc         1 3H3       0.045700
     61 H36          5.0390     1.7520    -4.3690 hc         1 3H3       0.045700
     62 H37          1.8990     0.0020     2.0310 ha         1 3H3       0.167000
     63 C17          8.3800    -1.3590    -3.2210 c3         1 3H3      -0.198400
     64 H13         12.4030     1.2220    -9.1540 hn         1 3H3       0.333500
     65 O3          13.3760    -0.5720    -7.8060 o          1 3H3      -0.596000
     66 O4          10.1610     2.1710    -9.3550 o          1 3H3      -0.596000
     67 H23          7.8020    -0.4990    -2.9020 hc         1 3H3       0.081700
     68 H24          7.7230    -2.0470    -3.7390 hc         1 3H3       0.081700
@<TRIPOS>BOND
     1    22    21 1
     2    21    19 1
     3    21    23 1
     4    20    19 2
     5    19    63 1
     6    25    24 1
     7    23    24 2
     8    63    17 1
     9    24    26 1
    10    17    16 1
    11    17    18 1
    12    13    12 1
    13    13    15 1
    14    30     2 2
    15    30    28 1
    16    16    15 1
    17     1     2 1
    18     1     7 1
    19    29    28 2
    20    28     9 1
    21    65    12 2
    22     9    26 1
    23    12    11 1
    24    26     8 1
    25     7     6 1
    26    15    14 1
    27    14    10 1
    28    27     8 1
    29    11    10 1
    30     8     3 1
    31     4     3 2
    32     4     5 1
    33    10    66 2
    34     6     5 2
    35     1    31 1
    36     1    32 1
    37     2    33 1
    38     3    34 1
    39     4    35 1
    40     5    36 1
    41     6    37 1
    42     7    38 1
    43     7    39 1
    44     8    40 1
    45    11    64 1
    46    13    41 1
    47    13    42 1
    48    14    43 1
    49    14    44 1
    50    15    45 1
    51    16    46 1
    52    16    47 1
    53    17    48 1
    54    18    49 1
    55    63    67 1
    56    63    68 1
    57    21    50 1
    58    22    51 1
    59    22    52 1
    60    22    53 1
    61    23    54 1
    62    25    55 1
    63    25    56 1
    64    25    57 1
    65    26    58 1
    66    27    59 1
    67    27    60 1
    68    27    61 1
    69    30    62 1
@<TRIPOS>SUBSTRUCTURE
     1 3H3         1 TEMP              0 ****  ****    0 ROOT
