@<TRIPOS>MOLECULE
molecule
   87    87     1     0     0
SMALL
bcc


@<TRIPOS>ATOM
      1 CAF          0.0000     0.0000     0.0000 c3         1 3H4      -0.071200
      2 CAA          1.5040     0.0000     0.0000 c2         1 3H4      -0.264200
      3 CAB          2.2050     0.0000     1.1310 ce         1 3H4       0.018900
      4 OAG          3.5640    -0.0080     1.0910 os         1 3H4      -0.296900
      5 CAH          4.1740    -0.0150    -0.2010 c3         1 3H4       0.124700
      6 CAC          1.5030     0.0080     2.4320 c          1 3H4       0.746800
      7 OAI          2.1060     0.1770     3.4730 o          1 3H4      -0.525500
      8 OAD          0.1580    -0.1800     2.4190 os         1 3H4      -0.393900
      9 CAE         -0.5320     0.5160     1.3380 c3         1 3H4       0.193100
     10 CAJ         -2.0350     0.2440     1.4310 c3         1 3H4      -0.066500
     11 CAK         -2.2790    -1.2660     1.4540 c3         1 3H4      -0.119100
     12 CAL         -2.5800     0.8610     2.6940 c2         1 3H4      -0.447200
     13 CAM         -3.4590     1.8620     2.6220 ce         1 3H4       0.045800
     14 CAO         -3.9870     2.3070     1.2820 c3         1 3H4      -0.148900
     15 CAN         -3.9110     2.5270     3.8430 ce         1 3H4      -0.371000
     16 CAP         -4.4900     1.8060     4.8340 cf         1 3H4       0.017000
     17 CAQ         -4.5990     0.4040     4.7150 cf         1 3H4      -0.039000
     18 CAR         -5.2880    -0.3040     5.6460 ce         1 3H4      -0.446200
     19 CAS         -6.0730     0.3710     6.6110 c          1 3H4       0.708300
     20 OAU         -6.2320     1.5750     6.5330 o          1 3H4      -0.645100
     21 N           -6.6460    -0.3200     7.6170 ns         1 3H4      -0.580900
     22 CA          -7.4590     0.3790     8.6160 c3         1 3H4       0.054700
     23 CB          -8.8910     0.5240     8.0970 c3         1 3H4      -0.080000
     24 CG1         -9.7100     1.3570     9.0860 c3         1 3H4      -0.090100
     25 CBA         -8.8710     1.2220     6.7360 c3         1 3H4      -0.090100
     26 CG2         -9.5230    -0.8620     7.9510 c3         1 3H4      -0.090100
     27 C           -7.4680    -0.4130     9.8990 c          1 3H4       0.625100
     28 O           -6.9510    -1.5100     9.9390 o          1 3H4      -0.477100
     29 NBB         -8.0490     0.0990    11.0020 ns         1 3H4      -0.475100
     30 CBC         -8.1160    -0.6590    12.1690 c2         1 3H4       0.029600
     31 CBE         -8.7700    -0.1980    13.2170 c2         1 3H4      -0.524200
     32 CBF         -9.3390     1.1980    13.1970 c3         1 3H4      -0.134200
     33 CBG        -10.8560     1.1320    13.3850 c3         1 3H4       0.166100
     34 OBH        -11.1590     0.6130    14.7070 os         1 3H4      -0.411900
     35 CBM        -11.2930    -0.7220    14.8230 c          1 3H4       0.586100
     36 OBO        -11.1610    -1.4340    13.8460 o          1 3H4      -0.385000
     37 NBN        -11.5730    -1.2690    16.0220 nz         1 3H4      -0.648400
     38 CBI        -11.4490     2.5350    13.2410 c3         1 3H4      -0.074200
     39 CBJ        -12.9520     2.4540    13.3030 c2         1 3H4      -0.217200
     40 CBK        -13.6110     3.1730    14.1780 c2         1 3H4      -0.175200
     41 CBL        -12.8650     4.0810    15.1220 c3         1 3H4      -0.079900
     42 H1          -0.3570    -1.0100    -0.1600 hc         1 3H4       0.064200
     43 H2          -0.3570     0.6420    -0.7970 hc         1 3H4       0.064200
     44 H3           2.0310    -0.0020    -0.9470 ha         1 3H4       0.144000
     45 H4           3.8570    -0.8960    -0.7460 h1         1 3H4       0.045700
     46 H5           5.2520    -0.0270    -0.0910 h1         1 3H4       0.045700
     47 H6           3.8770     0.8730    -0.7460 h1         1 3H4       0.045700
     48 H7          -0.3450     1.5800     1.4160 h1         1 3H4       0.069700
     49 H8          -2.5340     0.6770     0.5730 hc         1 3H4       0.044700
     50 H9          -1.7990    -1.6970     2.3250 hc         1 3H4       0.056700
     51 H10         -3.3440    -1.4600     1.4970 hc         1 3H4       0.056700
     52 H11         -1.8670    -1.7130     0.5570 hc         1 3H4       0.056700
     53 H12         -3.1230     0.1060     2.1370 ha         1 3H4       0.301000
     54 H13         -4.4970     1.4810     0.8020 hc         1 3H4       0.062700
     55 H14         -3.1630     2.6340     0.6590 hc         1 3H4       0.062700
     56 H15         -4.6810     3.1270     1.4210 hc         1 3H4       0.062700
     57 H16         -4.5490     2.1650     3.0450 ha         1 3H4       0.184000
     58 H17         -3.6820     1.0950     4.9550 ha         1 3H4       0.326000
     59 H18         -5.3800     1.0420     4.3170 ha         1 3H4       0.245000
     60 H19         -4.8290     0.0540     6.5590 ha         1 3H4       0.121000
     61 H20         -6.4810    -1.3030     7.7050 hn         1 3H4       0.353500
     62 H21         -7.0400     1.3600     8.8000 h1         1 3H4       0.092700
     63 H22        -10.5090     1.8630     8.5570 hc         1 3H4       0.044922
     64 H23         -9.0680     2.0910     9.5580 hc         1 3H4       0.044922
     65 H24        -10.1320     0.7070     9.8430 hc         1 3H4       0.044922
     66 H25         -8.2870     2.1320     6.8050 hc         1 3H4       0.044922
     67 H26         -9.8850     1.4660     6.4400 hc         1 3H4       0.044922
     68 H27         -8.4290     0.5640     5.9980 hc         1 3H4       0.044922
     69 H28         -8.9660    -1.4380     7.2210 hc         1 3H4       0.044922
     70 H29        -10.5500    -0.7570     7.6200 hc         1 3H4       0.044922
     71 H30         -9.5020    -1.3710     8.9060 hc         1 3H4       0.044922
     72 H31         -7.3880     0.1340    12.0420 h4         1 3H4       0.333000
     73 H32         -8.2170     0.7320    13.2660 ha         1 3H4       0.228000
     74 H34         -9.1130     1.6660    12.2470 hc         1 3H4       0.048700
     75 H35         -8.9000     1.7780    14.0000 hc         1 3H4       0.048700
     76 H36        -11.2860     0.4800    12.6340 h1         1 3H4       0.108700
     77 H37        -12.5110    -1.6170    16.0190 hn         1 3H4       0.488800
     78 H38        -11.4770    -0.5740    16.7370 hn         1 3H4       0.488800
     79 H39        -11.0870     3.1640    14.0460 hc         1 3H4       0.079700
     80 H40        -11.1490     2.9580    12.2900 hc         1 3H4       0.079700
     81 H41        -12.2840     1.9560    13.9950 ha         1 3H4       0.126000
     82 H42        -13.0870     2.8370    15.0650 ha         1 3H4       0.165000
     83 H43        -12.1730     3.4960    15.7150 hc         1 3H4       0.058700
     84 H44        -12.3170     4.8220    14.5530 hc         1 3H4       0.058700
     85 H45        -13.5710     4.5780    15.7770 hc         1 3H4       0.058700
     86 H46         -8.3790     1.0440    11.0000 hn         1 3H4       0.285500
     87 HBN3       -10.9050    -1.9860    16.2260 hn         1 3H4       0.488800
@<TRIPOS>BOND
     1     5     4 1
     2     4     3 1
     3     2     3 2
     4     2     1 1
     5     3     6 1
     6     1     9 1
     7     6     7 2
     8     6     8 1
     9    25    23 1
    10     9     8 1
    11     9    10 1
    12    24    23 1
    13    23    26 1
    14    23    22 1
    15    15    16 2
    16    15    13 1
    17    16    17 1
    18    12    10 1
    19    12    13 2
    20    20    19 2
    21    10    11 1
    22    13    14 1
    23    19    21 1
    24    19    18 1
    25    17    18 2
    26    21    22 1
    27    22    27 1
    28    27    28 2
    29    27    29 1
    30    29    30 1
    31    30    31 2
    32    32    31 1
    33    32    33 1
    34    38    33 1
    35    38    39 1
    36    41    40 1
    37    33    34 1
    38    34    35 1
    39    39    40 2
    40    35    37 1
    41    35    36 2
    42     1    42 1
    43     1    43 1
    44     2    44 1
    45     5    45 1
    46     5    46 1
    47     5    47 1
    48     9    48 1
    49    10    49 1
    50    11    50 1
    51    11    51 1
    52    11    52 1
    53    12    53 1
    54    14    54 1
    55    14    55 1
    56    14    56 1
    57    15    57 1
    58    16    58 1
    59    17    59 1
    60    18    60 1
    61    21    61 1
    62    22    62 1
    63    24    63 1
    64    24    64 1
    65    24    65 1
    66    25    66 1
    67    25    67 1
    68    25    68 1
    69    26    69 1
    70    26    70 1
    71    26    71 1
    72    30    72 1
    73    31    73 1
    74    32    74 1
    75    32    75 1
    76    33    76 1
    77    37    77 1
    78    37    78 1
    79    38    79 1
    80    38    80 1
    81    39    81 1
    82    40    82 1
    83    41    83 1
    84    41    84 1
    85    41    85 1
    86    29    86 1
    87    87    37 1
@<TRIPOS>SUBSTRUCTURE
     1 3H4         1 TEMP              0 ****  ****    0 ROOT
