@<TRIPOS>MOLECULE
3H4
   87    87     1     0     0
SMALL
bcc


@<TRIPOS>ATOM
      1 CAF          0.0000     0.0000     0.0000 c3         1 3H4      -0.006200
      2 CAA          1.5040     0.0000     0.0000 c2         1 3H4      -0.252200
      3 CAB          2.2050     0.0000     1.1310 ce         1 3H4       0.012900
      4 OAG          3.5640    -0.0080     1.0910 os         1 3H4      -0.274900
      5 CAH          4.1740    -0.0150    -0.2010 c3         1 3H4       0.239700
      6 CAC          1.5030     0.0080     2.4320 c          1 3H4       0.810800
      7 OAI          2.1060     0.1770     3.4730 o          1 3H4      -0.578500
      8 OAD          0.1580    -0.1800     2.4190 os         1 3H4      -0.403900
      9 CAE         -0.5320     0.5160     1.3380 c3         1 3H4       0.200100
     10 CAJ         -2.0350     0.2440     1.4310 c3         1 3H4      -0.021500
     11 CAK         -2.2790    -1.2660     1.4540 c3         1 3H4      -0.000100
     12 CAL         -2.5800     0.8610     2.6940 c2         1 3H4      -0.162200
     13 CAM         -3.4590     1.8620     2.6220 ce         1 3H4      -0.109200
     14 CAO         -3.9870     2.3070     1.2820 c3         1 3H4       0.058100
     15 CAN         -3.9110     2.5270     3.8430 ce         1 3H4      -0.048000
     16 CAP         -4.4900     1.8060     4.8340 cf         1 3H4      -0.177000
     17 CAQ         -4.5990     0.4040     4.7150 cf         1 3H4       0.014000
     18 CAR         -5.2880    -0.3040     5.6460 ce         1 3H4      -0.282200
     19 CAS         -6.0730     0.3710     6.6110 c          1 3H4       0.605300
     20 OAU         -6.2320     1.5750     6.5330 o          1 3H4      -0.675100
     21 N           -6.6460    -0.3200     7.6170 ns         1 3H4      -0.184900
     22 CA          -7.4590     0.3790     8.6160 c3         1 3H4      -0.042300
     23 CB          -8.8910     0.5240     8.0970 c3         1 3H4      -0.078000
     24 CG1         -9.7100     1.3570     9.0860 c3         1 3H4      -0.009433
     25 CBA         -8.8710     1.2220     6.7360 c3         1 3H4      -0.009433
     26 CG2         -9.5230    -0.8620     7.9510 c3         1 3H4      -0.009433
     27 C           -7.4680    -0.4130     9.8990 c          1 3H4       0.571100
     28 O           -6.9510    -1.5100     9.9390 o          1 3H4      -0.613100
     29 NBB         -8.0490     0.0990    11.0020 ns         1 3H4      -0.082100
     30 CBC         -8.1160    -0.6590    12.1690 c2         1 3H4      -0.054400
     31 CBE         -8.7700    -0.1980    13.2170 c2         1 3H4      -0.321200
     32 CBF         -9.3390     1.1980    13.1970 c3         1 3H4       0.002800
     33 CBG        -10.8560     1.1320    13.3850 c3         1 3H4       0.209100
     34 OBH        -11.1590     0.6130    14.7070 os         1 3H4      -0.368900
     35 CBM        -11.2930    -0.7220    14.8230 c          1 3H4       0.426100
     36 OBO        -11.1610    -1.4340    13.8460 o          1 3H4      -0.441000
     37 NBN        -11.5730    -1.2690    16.0220 nz         1 3H4       0.254600
     38 CBI        -11.4490     2.5350    13.2410 c3         1 3H4      -0.003200
     39 CBJ        -12.9520     2.4540    13.3030 c2         1 3H4      -0.212200
     40 CBK        -13.6110     3.1730    14.1780 c2         1 3H4      -0.116200
     41 CBL        -12.8650     4.0810    15.1220 c3         1 3H4       0.039100
     42 H1          -0.3570    -1.0100    -0.1600 hc         1 3H4       0.036200
     43 H2          -0.3570     0.6410    -0.7970 hc         1 3H4       0.036200
     44 H3           2.0310     0.0000    -0.9470 ha         1 3H4       0.129000
     45 H4           5.2520    -0.0300    -0.0910 h1         1 3H4       0.000367
     46 H5           3.8550    -0.8940    -0.7470 h1         1 3H4       0.000367
     47 H6           3.8800     0.8750    -0.7440 h1         1 3H4       0.000367
     48 H7          -0.3450     1.5800     1.4160 h1         1 3H4       0.024700
     49 H8          -2.5340     0.6770     0.5730 hc         1 3H4       0.048700
     50 H9          -1.6700    -1.7190     2.2270 hc         1 3H4       0.012367
     51 H10         -3.3250    -1.4600     1.6600 hc         1 3H4       0.012367
     52 H11         -2.0160    -1.6900     0.4930 hc         1 3H4       0.012367
     53 H12         -2.2180     0.5260     3.6590 ha         1 3H4       0.129000
     54 H13         -3.1750     2.7150     0.6910 hc         1 3H4       0.011367
     55 H14         -4.7450     3.0670     1.4270 hc         1 3H4       0.011367
     56 H15         -4.4200     1.4590     0.7650 hc         1 3H4       0.011367
     57 H16         -3.8270     3.6030     3.9340 ha         1 3H4       0.109000
     58 H17         -4.8250     2.3000     5.7390 ha         1 3H4       0.175000
     59 H18         -4.0010    -0.1170     3.9770 ha         1 3H4       0.123000
     60 H19         -5.3680    -1.3800     5.5500 ha         1 3H4       0.113000
     61 H20         -6.4750    -1.3020     7.7090 hn         1 3H4       0.203500
     62 H21         -7.0400     1.3600     8.8000 h1         1 3H4       0.069700
     63 H22         -9.0700     2.0980     9.5500 hc         1 3H4       0.014589
     64 H23        -10.5150     1.8540     8.5590 hc         1 3H4       0.014589
     65 H24        -10.1230     0.7090     9.8490 hc         1 3H4       0.014589
     66 H25         -9.8860     1.4550     6.4340 hc         1 3H4       0.014589
     67 H26         -8.4180     0.5680     6.0010 hc         1 3H4       0.014589
     68 H27         -8.2970     2.1380     6.8080 hc         1 3H4       0.014589
     69 H28         -9.4800    -1.3810     8.9000 hc         1 3H4       0.014589
     70 H29        -10.5570    -0.7560     7.6440 hc         1 3H4       0.014589
     71 H30         -8.9810    -1.4290     7.2040 hc         1 3H4       0.014589
     72 H31         -7.7070    -1.6620    12.1850 h4         1 3H4       0.153000
     73 H32         -8.8220    -0.7890    14.1240 ha         1 3H4       0.095000
     74 H34         -9.1120     1.6660    12.2470 hc         1 3H4       0.041200
     75 H35         -8.9000     1.7780    14.0000 hc         1 3H4       0.041200
     76 H36        -11.2860     0.4800    12.6340 h1         1 3H4       0.053700
     77 H37        -11.1850    -0.6990    16.7480 hn         1 3H4       0.247133
     78 H38        -12.5650    -1.3270    16.1390 hn         1 3H4       0.247133
     79 H39        -11.1490     2.9580    12.2900 hc         1 3H4       0.051700
     80 H40        -11.0870     3.1640    14.0460 hc         1 3H4       0.051700
     81 H41        -13.4880     1.8020    12.6240 ha         1 3H4       0.113000
     82 H42        -14.6910     3.1150    14.2230 ha         1 3H4       0.111000
     83 H43        -12.2540     4.7710    14.5530 hc         1 3H4       0.013367
     84 H44        -13.5740     4.6380    15.7230 hc         1 3H4       0.013367
     85 H45        -12.2320     3.4870    15.7700 hc         1 3H4       0.013367
     86 H46         -8.3710     1.0470    11.0020 hn         1 3H4       0.197500
     87 HBN3       -11.1310    -2.1640    16.0920 hn         1 3H4       0.247133
@<TRIPOS>BOND
     1     1     2 1   
     2     1     9 1   
     3     1    42 1   
     4     1    43 1   
     5     2     3 2   
     6     2    44 1   
     7     3     4 1   
     8     3     6 1   
     9     4     5 1   
    10     5    45 1   
    11     5    46 1   
    12     5    47 1   
    13     6     7 2   
    14     6     8 1   
    15     8     9 1   
    16     9    10 1   
    17     9    48 1   
    18    10    11 1   
    19    10    12 1   
    20    10    49 1   
    21    11    50 1   
    22    11    51 1   
    23    11    52 1   
    24    12    13 2   
    25    12    53 1   
    26    13    14 1   
    27    13    15 1   
    28    14    54 1   
    29    14    55 1   
    30    14    56 1   
    31    15    16 2   
    32    15    57 1   
    33    16    17 1   
    34    16    58 1   
    35    17    18 2   
    36    17    59 1   
    37    18    19 1   
    38    18    60 1   
    39    19    20 2   
    40    19    21 1   
    41    21    22 1   
    42    21    61 1   
    43    22    23 1   
    44    22    27 1   
    45    22    62 1   
    46    23    24 1   
    47    23    25 1   
    48    23    26 1   
    49    24    63 1   
    50    24    64 1   
    51    24    65 1   
    52    25    66 1   
    53    25    67 1   
    54    25    68 1   
    55    26    69 1   
    56    26    70 1   
    57    26    71 1   
    58    27    28 2   
    59    27    29 1   
    60    29    30 1   
    61    29    86 1   
    62    30    31 2   
    63    30    72 1   
    64    31    32 1   
    65    31    73 1   
    66    32    33 1   
    67    32    74 1   
    68    32    75 1   
    69    33    34 1   
    70    33    38 1   
    71    33    76 1   
    72    34    35 1   
    73    35    36 2   
    74    35    37 1   
    75    37    77 1   
    76    37    78 1   
    77    37    87 1   
    78    38    39 1   
    79    38    79 1   
    80    38    80 1   
    81    39    40 2   
    82    39    81 1   
    83    40    41 1   
    84    40    82 1   
    85    41    83 1   
    86    41    84 1   
    87    41    85 1   
@<TRIPOS>SUBSTRUCTURE
     1 3H4         1 TEMP              0 ****  ****    0 ROOT
