@<TRIPOS>MOLECULE
3H5
   32    34     1     0     0
SMALL
bcc


@<TRIPOS>ATOM
      1 C11          0.0000     0.0000     0.0000 cc         1 3H5       0.136400
      2 C13          1.7750     0.0000     1.3230 ca         1 3H5      -0.272200
      3 C14          3.0150    -0.0010     1.9450 ca         1 3H5      -0.079000
      4 C15          3.0910     0.0000     3.3220 ca         1 3H5      -0.099000
      5 C16          1.9360     0.0030     4.0890 ca         1 3H5      -0.115000
      6 C02         -1.3180     0.0040    -4.7610 cc         1 3H5       0.396600
      7 N03         -2.4670    -0.0030    -5.3800 nd         1 3H5      -0.653800
      8 N04         -3.4940    -0.0070    -4.4300 na         1 3H5       0.515400
      9 C05         -4.9300    -0.0130    -4.7220 c3         1 3H5       0.019600
     10 C06         -2.9420    -0.0020    -3.2060 cd         1 3H5      -0.216300
     11 C07         -1.5710    -0.0020    -3.3710 cc         1 3H5      -0.400900
     12 C08         -0.2260    -0.0000    -2.3550 c          1 3H5       0.667700
     13 O09          0.9860     0.0000    -2.4620 o          1 3H5      -0.641100
     14 N10         -0.7950    -0.0010    -1.1330 ns         1 3H5      -0.030400
     15 N12          1.3650     0.0000     0.0000 na         1 3H5       0.250700
     16 C17          0.6970     0.0040     3.4880 ca         1 3H5      -0.050000
     17 C18          0.6020     0.0040     2.0950 ca         1 3H5       0.083400
     18 N19         -0.4460     0.0050     1.2300 nd         1 3H5      -0.572100
     19 H1           3.9210    -0.0030     1.3510 ha         1 3H5       0.101000
     20 H2           4.0590    -0.0010     3.8070 ha         1 3H5       0.102000
     21 H3           2.0090     0.0030     5.1700 ha         1 3H5       0.103000
     22 H4          -0.0770     0.0120    -6.4920 hc         1 3H5       0.019367
     23 H5           0.5860     0.8920    -5.1070 hc         1 3H5       0.019367
     24 H6           0.5880    -0.8770    -5.1150 hc         1 3H5       0.019367
     25 H7          -5.3820    -0.8980    -4.2930 h1         1 3H5       0.025033
     26 H8          -5.0800    -0.0140    -5.7950 h1         1 3H5       0.025033
     27 H9          -5.3890     0.8710    -4.2940 h1         1 3H5       0.025033
     28 H10         -3.4740    -0.0040    -2.2630 h4         1 3H5       0.147000
     29 H11         -1.7920     0.0200    -1.0450 hn         1 3H5       0.199500
     30 H12          1.9540    -0.1350    -0.7980 hn         1 3H5       0.175700
     31 H13         -0.2020     0.0060     4.0940 ha         1 3H5       0.108000
     32 C01          0.0400     0.0080    -5.4150 c3         1 3H5      -0.009400
@<TRIPOS>BOND
     1     1    14 1   
     2     1    15 1   
     3     1    18 2   
     4     2     3 ar  
     5     2    15 1   
     6     2    17 ar  
     7     3     4 ar  
     8     3    19 1   
     9     4     5 ar  
    10     4    20 1   
    11     5    16 ar  
    12     5    21 1   
    13     6     7 2   
    14     6    11 1   
    15     6    32 1   
    16     7     8 1   
    17     8     9 1   
    18     8    10 1   
    19     9    25 1   
    20     9    26 1   
    21     9    27 1   
    22    10    11 2   
    23    10    28 1   
    24    11    12 1   
    25    12    13 2   
    26    12    14 1   
    27    14    29 1   
    28    15    30 1   
    29    16    17 ar  
    30    16    31 1   
    31    17    18 1   
    32    22    32 1   
    33    23    32 1   
    34    24    32 1   
@<TRIPOS>SUBSTRUCTURE
     1 3H5         1 TEMP              0 ****  ****    0 ROOT
