@<TRIPOS>MOLECULE
molecule
   32    34     1     0     0
SMALL
bcc


@<TRIPOS>ATOM
      1 C11          0.0000     0.0000     0.0000 cc         1 3H5       0.479400
      2 C13          1.7750     0.0000     1.3230 ca         1 3H5      -0.094200
      3 C14          3.0150    -0.0010     1.9450 ca         1 3H5      -0.121000
      4 C15          3.0910     0.0000     3.3220 ca         1 3H5      -0.122000
      5 C16          1.9360     0.0030     4.0890 ca         1 3H5      -0.142000
      6 C02         -1.3180     0.0040    -4.7610 cc         1 3H5       0.368600
      7 N03         -2.4670    -0.0030    -5.3800 nd         1 3H5      -0.512800
      8 N04         -3.4940    -0.0070    -4.4300 na         1 3H5       0.084400
      9 C05         -4.9300    -0.0130    -4.7220 c3         1 3H5       0.061600
     10 C06         -2.9420    -0.0020    -3.2060 cd         1 3H5      -0.077300
     11 C07         -1.5710    -0.0020    -3.3710 cc         1 3H5      -0.365900
     12 C08         -0.2260    -0.0000    -2.3550 c          1 3H5       0.731700
     13 O09          0.9860     0.0000    -2.4620 o          1 3H5      -0.584100
     14 N10         -0.7950    -0.0010    -1.1330 ns         1 3H5      -0.462400
     15 N12          1.3650     0.0000     0.0000 na         1 3H5      -0.263300
     16 C17          0.6970     0.0040     3.4880 ca         1 3H5      -0.081000
     17 C18          0.6020     0.0040     2.0950 ca         1 3H5       0.111400
     18 N19         -0.4460     0.0050     1.2300 nd         1 3H5      -0.652100
     19 H1           3.9210    -0.0030     1.3510 ha         1 3H5       0.128000
     20 H2           4.0590    -0.0010     3.8070 ha         1 3H5       0.131000
     21 H3           2.0090     0.0030     5.1700 ha         1 3H5       0.131000
     22 H4          -0.0770     0.0120    -6.4920 hc         1 3H5       0.059367
     23 H5           0.5860     0.8920    -5.1070 hc         1 3H5       0.059367
     24 H6           0.5880    -0.8770    -5.1150 hc         1 3H5       0.059367
     25 H7          -5.3820    -0.8980    -4.2930 h1         1 3H5       0.061033
     26 H8          -5.0800    -0.0140    -5.7950 h1         1 3H5       0.061033
     27 H9          -5.3890     0.8710    -4.2940 h1         1 3H5       0.061033
     28 H10         -3.4740    -0.0040    -2.2630 h4         1 3H5       0.174000
     29 H11         -1.7920     0.0200    -1.0450 hn         1 3H5       0.355500
     30 H12          1.9540    -0.1350    -0.7980 hn         1 3H5       0.334700
     31 H13         -0.2020     0.0060     4.0940 ha         1 3H5       0.140000
     32 C01          0.0400     0.0080    -5.4150 c3         1 3H5      -0.113400
@<TRIPOS>BOND
     1     4     3 ar
     2     4     5 ar
     3     3     2 ar
     4     5    16 ar
     5     2    17 ar
     6     2    15 1
     7    16    17 ar
     8    17    18 1
     9    15     1 1
    10    18     1 2
    11     1    14 1
    12    13    12 2
    13    14    12 1
    14    12    11 1
    15    32     6 1
    16    11     6 1
    17    11    10 2
    18     6     7 2
    19     7     8 1
    20    10     8 1
    21     8     9 1
    22     3    19 1
    23     4    20 1
    24     5    21 1
    25    32    22 1
    26    32    23 1
    27    32    24 1
    28     9    25 1
    29     9    26 1
    30     9    27 1
    31    10    28 1
    32    14    29 1
    33    15    30 1
    34    16    31 1
@<TRIPOS>SUBSTRUCTURE
     1 3H5         1 TEMP              0 ****  ****    0 ROOT
