@<TRIPOS>MOLECULE
molecule
   36    39     1     0     0
SMALL
bcc


@<TRIPOS>ATOM
      1 C11          0.0000     0.0000     0.0000 ca         1 3H6      -0.095200
      2 C13         -4.7350     0.0230    -3.0870 cc         1 3H6      -0.374900
      3 C14         -5.9840     0.1360    -2.5100 cd         1 3H6      -0.069300
      4 C17         -4.9540    -0.0840    -4.5320 cc         1 3H6       0.463800
      5 C18         -3.9100    -0.2210    -5.5750 ca         1 3H6      -0.145500
      6 C10          1.3880     0.0000     0.0000 ca         1 3H6      -0.120000
      7 N12         -0.9600     0.0060    -0.9980 na         1 3H6      -0.260300
      8 O01         -2.4040     0.0140    -3.0280 o          1 3H6      -0.614100
      9 C02         -3.4390     0.0160    -2.3880 c          1 3H6       0.722700
     10 C04         -2.1800     0.0100    -0.3860 cc         1 3H6       0.491400
     11 N05         -2.0250     0.0070     0.9140 nd         1 3H6      -0.653100
     12 C06         -0.7020     0.0000     1.2170 ca         1 3H6       0.111400
     13 C07          0.0090     0.0010     2.4190 ca         1 3H6      -0.081000
     14 C08          1.3860     0.0010     2.4010 ca         1 3H6      -0.142000
     15 C09          2.0730     0.0000     1.1960 ca         1 3H6      -0.122000
     16 N15         -6.8960     0.0970    -3.4930 na         1 3H6      -0.023600
     17 N16         -6.2530    -0.0380    -4.7270 nd         1 3H6      -0.497800
     18 C19         -2.8450    -1.1000    -5.3890 ca         1 3H6      -0.056500
     19 C20         -1.8760    -1.2240    -6.3620 ca         1 3H6      -0.177000
     20 C21         -1.9600    -0.4760    -7.5260 ca         1 3H6       0.147900
     21 F22         -1.0090    -0.6010    -8.4770 f          1 3H6      -0.139900
     22 C23         -3.0170     0.3990    -7.7170 ca         1 3H6      -0.177000
     23 C24         -3.9940     0.5260    -6.7500 ca         1 3H6      -0.056500
     24 H1          -6.1910     0.2340    -1.4520 h4         1 3H6       0.175000
     25 H2           1.9310    -0.0000    -0.9370 ha         1 3H6       0.129000
     26 H3          -0.7920     0.1400    -1.9750 hn         1 3H6       0.338700
     27 H4          -4.2500    -0.0070    -0.5150 hn         1 3H6       0.349500
     28 H6          -0.5220     0.0010     3.3640 ha         1 3H6       0.140000
     29 H7           1.9360     0.0010     3.3340 ha         1 3H6       0.132000
     30 H8           3.1570    -0.0000     1.1950 ha         1 3H6       0.132000
     31 H9          -7.8860     0.1570    -3.3630 hn         1 3H6       0.337700
     32 H10         -2.7780    -1.6850    -4.4800 ha         1 3H6       0.148000
     33 H11         -1.0480    -1.9070    -6.2170 ha         1 3H6       0.148000
     34 H12         -3.0800     0.9800    -8.6290 ha         1 3H6       0.148000
     35 H13         -4.8200     1.2100    -6.9000 ha         1 3H6       0.148000
     36 N03         -3.3980     0.0150    -1.0410 ns         1 3H6      -0.455400
@<TRIPOS>BOND
     1     3    16 1
     2     3     2 2
     3     8     9 2
     4    16    17 1
     5     2     9 1
     6     2     4 1
     7     9    36 1
     8    17     4 2
     9     6    15 ar
    10     6     1 ar
    11     7     1 1
    12     7    10 1
    13    15    14 ar
    14     1    12 ar
    15     4     5 1
    16    10    36 1
    17    10    11 2
    18    14    13 ar
    19    12    11 1
    20    12    13 ar
    21    18     5 ar
    22    18    19 ar
    23     5    23 ar
    24    19    20 ar
    25    23    22 ar
    26    20    22 ar
    27    20    21 1
    28     3    24 1
    29     6    25 1
    30     7    26 1
    31    36    27 1
    32    13    28 1
    33    14    29 1
    34    15    30 1
    35    16    31 1
    36    18    32 1
    37    19    33 1
    38    22    34 1
    39    23    35 1
@<TRIPOS>SUBSTRUCTURE
     1 3H6         1 TEMP              0 ****  ****    0 ROOT
