@<TRIPOS>MOLECULE
3H6
   36    39     1     0     0
SMALL
bcc


@<TRIPOS>ATOM
      1 C11          0.0000     0.0000     0.0000 ca         1 3H6      -0.274200
      2 C13         -4.7350     0.0230    -3.0870 cc         1 3H6      -0.395900
      3 C14         -5.9840     0.1360    -2.5100 cd         1 3H6      -0.231300
      4 C17         -4.9540    -0.0840    -4.5320 cc         1 3H6       0.511800
      5 C18         -3.9100    -0.2210    -5.5750 ca         1 3H6      -0.145500
      6 C10          1.3880     0.0000     0.0000 ca         1 3H6      -0.078000
      7 N12         -0.9600     0.0060    -0.9980 na         1 3H6       0.251700
      8 O01         -2.4040     0.0140    -3.0280 o          1 3H6      -0.672100
      9 C02         -3.4390     0.0160    -2.3880 c          1 3H6       0.633700
     10 C04         -2.1800     0.0100    -0.3860 cc         1 3H6       0.138400
     11 N05         -2.0250     0.0070     0.9140 nd         1 3H6      -0.573100
     12 C06         -0.7020     0.0000     1.2170 ca         1 3H6       0.084400
     13 C07          0.0090     0.0010     2.4190 ca         1 3H6      -0.051000
     14 C08          1.3860     0.0010     2.4010 ca         1 3H6      -0.114000
     15 C09          2.0730     0.0000     1.1960 ca         1 3H6      -0.099000
     16 N15         -6.8960     0.0970    -3.4930 na         1 3H6       0.482400
     17 N16         -6.2530    -0.0380    -4.7270 nd         1 3H6      -0.658800
     18 C19         -2.8450    -1.1000    -5.3890 ca         1 3H6      -0.032000
     19 C20         -1.8760    -1.2240    -6.3620 ca         1 3H6      -0.143500
     20 C21         -1.9600    -0.4760    -7.5260 ca         1 3H6       0.114900
     21 F22         -1.0090    -0.6010    -8.4770 f          1 3H6      -0.129900
     22 C23         -3.0170     0.3990    -7.7170 ca         1 3H6      -0.143500
     23 C24         -3.9940     0.5260    -6.7500 ca         1 3H6      -0.032000
     24 H1          -6.1910     0.2340    -1.4520 h4         1 3H6       0.147000
     25 H2           1.9310    -0.0000    -0.9370 ha         1 3H6       0.102000
     26 H3          -0.7920     0.1400    -1.9750 hn         1 3H6       0.180700
     27 H4          -4.2500    -0.0070    -0.5150 hn         1 3H6       0.181500
     28 H6          -0.5220     0.0010     3.3640 ha         1 3H6       0.108000
     29 H7           1.9360     0.0010     3.3340 ha         1 3H6       0.103000
     30 H8           3.1570    -0.0000     1.1950 ha         1 3H6       0.103000
     31 H9          -7.8860     0.1570    -3.3630 hn         1 3H6       0.149700
     32 H10         -2.7780    -1.6850    -4.4800 ha         1 3H6       0.117000
     33 H11         -1.0480    -1.9070    -6.2170 ha         1 3H6       0.119000
     34 H12         -3.0800     0.9800    -8.6290 ha         1 3H6       0.119000
     35 H13         -4.8200     1.2100    -6.9000 ha         1 3H6       0.117000
     36 N03         -3.3980     0.0150    -1.0410 ns         1 3H6       0.009600
@<TRIPOS>BOND
     1     1     6 ar  
     2     1     7 1   
     3     1    12 ar  
     4     2     3 2   
     5     2     4 1   
     6     2     9 1   
     7     3    16 1   
     8     3    24 1   
     9     4     5 1   
    10     4    17 2   
    11     5    18 ar  
    12     5    23 ar  
    13     6    15 ar  
    14     6    25 1   
    15     7    10 1   
    16     7    26 1   
    17     8     9 2   
    18     9    36 1   
    19    10    11 2   
    20    10    36 1   
    21    11    12 1   
    22    12    13 ar  
    23    13    14 ar  
    24    13    28 1   
    25    14    15 ar  
    26    14    29 1   
    27    15    30 1   
    28    16    17 1   
    29    16    31 1   
    30    18    19 ar  
    31    18    32 1   
    32    19    20 ar  
    33    19    33 1   
    34    20    21 1   
    35    20    22 ar  
    36    22    23 ar  
    37    22    34 1   
    38    23    35 1   
    39    27    36 1   
@<TRIPOS>SUBSTRUCTURE
     1 3H6         1 TEMP              0 ****  ****    0 ROOT
