@<TRIPOS>MOLECULE
3H7
   16    17     1     0     0
SMALL
bcc


@<TRIPOS>ATOM
      1 N01          0.0000     0.0000     0.0000 nv         1 3H7      -0.495800
      2 C02          1.3810     0.0000     0.0000 cc         1 3H7       0.484100
      3 N03          2.1170     0.0000     1.0580 nd         1 3H7      -0.458100
      4 C04          3.4560     0.0010     0.8950 ca         1 3H7       0.042400
      5 C05          4.4660     0.0000     1.8830 ca         1 3H7       0.187900
      6 F06          4.1260    -0.0010     3.1900 f          1 3H7      -0.112900
      7 C07          5.7920     0.0020     1.5220 ca         1 3H7      -0.171000
      8 C08          6.1590     0.0030     0.1820 ca         1 3H7       0.137900
      9 F09          7.4660     0.0030    -0.1610 f          1 3H7      -0.119900
     10 C10          5.1890     0.0020    -0.7970 ca         1 3H7      -0.097000
     11 C11          3.8390     0.0020    -0.4480 ca         1 3H7       0.030900
     12 S12          2.3850    -0.0060    -1.4430 ss         1 3H7      -0.254100
     13 H1          -0.5000    -0.7880     0.3620 hn         1 3H7       0.278800
     14 H2          -0.5000     0.7810    -0.3760 hn         1 3H7       0.278800
     15 H3           6.5570     0.0030     2.2890 ha         1 3H7       0.139000
     16 H4           5.4760     0.0030    -1.8420 ha         1 3H7       0.131000
@<TRIPOS>BOND
     1     1     2 1   
     2     1    13 1   
     3     1    14 1   
     4     2     3 2   
     5     2    12 1   
     6     3     4 1   
     7     4     5 ar  
     8     4    11 ar  
     9     5     6 1   
    10     5     7 ar  
    11     7     8 ar  
    12     7    15 1   
    13     8     9 1   
    14     8    10 ar  
    15    10    11 ar  
    16    10    16 1   
    17    11    12 1   
@<TRIPOS>SUBSTRUCTURE
     1 3H7         1 TEMP              0 ****  ****    0 ROOT
