@<TRIPOS>MOLECULE
molecule
   16    17     1     0     0
SMALL
bcc


@<TRIPOS>ATOM
      1 N01          0.0000     0.0000     0.0000 nv         1 3H7      -0.977800
      2 C02          1.3810     0.0000     0.0000 cc         1 3H7       0.658100
      3 N03          2.1170     0.0000     1.0580 nd         1 3H7      -0.591100
      4 C04          3.4560     0.0010     0.8950 ca         1 3H7       0.081400
      5 C05          4.4660     0.0000     1.8830 ca         1 3H7       0.212900
      6 F06          4.1260    -0.0010     3.1900 f          1 3H7      -0.115900
      7 C07          5.7920     0.0020     1.5220 ca         1 3H7      -0.212000
      8 C08          6.1590     0.0030     0.1820 ca         1 3H7       0.164900
      9 F09          7.4660     0.0030    -0.1610 f          1 3H7      -0.128900
     10 C10          5.1890     0.0020    -0.7970 ca         1 3H7      -0.147000
     11 C11          3.8390     0.0020    -0.4480 ca         1 3H7      -0.005100
     12 S12          2.3850    -0.0060    -1.4430 ss         1 3H7      -0.161100
     13 H1          -0.5000    -0.7880     0.3620 hn         1 3H7       0.450300
     14 H2          -0.5000     0.7810    -0.3760 hn         1 3H7       0.450300
     15 H3           6.5570     0.0030     2.2890 ha         1 3H7       0.166000
     16 H4           5.4760     0.0030    -1.8420 ha         1 3H7       0.156000
@<TRIPOS>BOND
     1     9     8 1
     2     8    10 ar
     3     8     7 ar
     4    10    11 ar
     5     7     5 ar
     6    11     4 ar
     7    11    12 1
     8     5     4 ar
     9     5     6 1
    10     4     3 1
    11    12     2 1
    12     3     2 2
    13     2     1 1
    14     1    13 1
    15     1    14 1
    16     7    15 1
    17    10    16 1
@<TRIPOS>SUBSTRUCTURE
     1 3H7         1 TEMP              0 ****  ****    0 ROOT
