@<TRIPOS>MOLECULE
3H8
   51    54     1     0     0
SMALL
bcc


@<TRIPOS>ATOM
      1 C10          0.0000     0.0000     0.0000 ca         1 3H8      -0.074000
      2 C18          7.8950     0.1230     0.9960 c          1 3H8       0.551100
      3 C11          1.3820     0.0000     0.0000 ca         1 3H8      -0.108000
      4 C12          2.0820     0.0000     1.2010 ca         1 3H8      -0.164200
      5 C13          1.3940     0.0010     2.4040 ca         1 3H8      -0.074000
      6 C16          5.5090     0.1050     0.9660 cc         1 3H8      -0.283700
      7 C15          4.2830     0.1290     0.3860 cd         1 3H8      -0.335300
      8 C23         11.6420    -0.1660     2.7690 ca         1 3H8      -0.060000
      9 C24         12.6910     0.5130     2.1780 ca         1 3H8      -0.126000
     10 C22         10.4260    -0.2600     2.1220 ca         1 3H8      -0.151000
     11 C21         10.2540     0.3360     0.8780 ca         1 3H8      -0.077400
     12 C26         11.3090     1.0220     0.2900 ca         1 3H8      -0.092600
     13 C31         -3.0030     0.4010     7.2210 ca         1 3H8       0.425200
     14 C30         -2.2820     0.5140     6.0510 ca         1 3H8      -0.231300
     15 N32         -4.1460    -0.2590     7.2510 nb         1 3H8      -0.592000
     16 C28          5.3260     0.0150     2.3540 cc         1 3H8       0.415200
     17 C02         -4.6490    -0.8320     6.1740 ca         1 3H8       0.393600
     18 C03         -3.9910    -0.7600     4.9630 ca         1 3H8      -0.258300
     19 C04         -2.7800    -0.0770     4.8890 ca         1 3H8      -0.058400
     20 N05         -2.0910     0.0030     3.6800 ns         1 3H8      -0.035100
     21 O07         -0.1370    -0.0220     4.7360 o          1 3H8      -0.619100
     22 C08         -0.0010     0.0020     2.4030 ca         1 3H8      -0.132600
     23 C09         -0.6940     0.0010     1.1920 ca         1 3H8      -0.109000
     24 N14          3.3560     0.0610     1.3810 na         1 3H8       0.687300
     25 O19          7.8660     0.0510     2.2100 o          1 3H8      -0.680100
     26 N20          9.0790     0.1920     0.3540 ns         1 3H8       0.019900
     27 C25         12.5260     1.1070     0.9410 ca         1 3H8      -0.063000
     28 Cl          11.1010     1.7680    -1.2640 cl         1 3H8      -0.038400
     29 N29          4.0410    -0.0090     2.6000 nd         1 3H8      -0.647800
     30 H1          -0.5400    -0.0000    -0.9390 ha         1 3H8       0.108000
     31 H2           1.9220    -0.0010    -0.9390 ha         1 3H8       0.110000
     32 H3           1.9380     0.0010     3.3410 ha         1 3H8       0.175000
     33 H4           4.0780     0.1950    -0.6760 h4         1 3H8       0.154000
     34 H5          11.7760    -0.6300     3.7390 ha         1 3H8       0.105000
     35 H6          13.6450     0.5820     2.6880 ha         1 3H8       0.107000
     36 H7           9.6050    -0.7940     2.5850 ha         1 3H8       0.162000
     37 H8          -2.6240     0.8570     8.1280 h4         1 3H8      -0.018900
     38 H9          -1.3440     1.0550     6.0340 ha         1 3H8       0.153000
     39 H10          6.1150    -0.0250     3.0950 h4         1 3H8       0.062100
     40 H11         -5.8090    -2.6070     5.9860 hc         1 3H8       0.013367
     41 H12         -6.3280    -1.5240     7.2840 hc         1 3H8       0.013367
     42 H13         -6.6790    -1.1160     5.5990 hc         1 3H8       0.013367
     43 H14         -4.4100    -1.2330     4.0820 ha         1 3H8       0.116000
     44 H15         -2.5960     0.1060     2.8220 hn         1 3H8       0.176500
     45 H16         -1.7780     0.0010     1.1880 ha         1 3H8       0.103000
     46 H17          6.7700     0.2180    -0.7050 hn         1 3H8       0.157500
     47 H18          9.0990     0.2930    -0.6410 hn         1 3H8       0.144500
     48 H19         13.3500     1.6400     0.4810 ha         1 3H8       0.113000
     49 C06         -0.7430     0.0020     3.6830 c          1 3H8       0.584700
     50 N17          6.7450     0.1560     0.2940 ns         1 3H8       0.010900
     51 C01         -5.9580    -1.5720     6.2670 c3         1 3H8      -0.040400
@<TRIPOS>BOND
     1     1     3 ar  
     2     1    23 ar  
     3     1    30 1   
     4     2    25 2   
     5     2    26 1   
     6     2    50 1   
     7     3     4 ar  
     8     3    31 1   
     9     4     5 ar  
    10     4    24 1   
    11     5    22 ar  
    12     5    32 1   
    13     6     7 2   
    14     6    16 1   
    15     6    50 1   
    16     7    24 1   
    17     7    33 1   
    18     8     9 ar  
    19     8    10 ar  
    20     8    34 1   
    21     9    27 ar  
    22     9    35 1   
    23    10    11 ar  
    24    10    36 1   
    25    11    12 ar  
    26    11    26 1   
    27    12    27 ar  
    28    12    28 1   
    29    13    14 ar  
    30    13    15 ar  
    31    13    37 1   
    32    14    19 ar  
    33    14    38 1   
    34    15    17 ar  
    35    16    29 2   
    36    16    39 1   
    37    17    18 ar  
    38    17    51 1   
    39    18    19 ar  
    40    18    43 1   
    41    19    20 1   
    42    20    44 1   
    43    20    49 1   
    44    21    49 2   
    45    22    23 ar  
    46    22    49 1   
    47    23    45 1   
    48    24    29 1   
    49    26    47 1   
    50    27    48 1   
    51    40    51 1   
    52    41    51 1   
    53    42    51 1   
    54    46    50 1   
@<TRIPOS>SUBSTRUCTURE
     1 3H8         1 TEMP              0 ****  ****    0 ROOT
