@<TRIPOS>MOLECULE
3HA
   17    17     1     0     0
SMALL
bcc


@<TRIPOS>ATOM
      1 O8           0.0000     0.0000     0.0000 o          1 3HA      -0.888800
      2 C7           1.3470     0.0000     0.0000 c          1 3HA       0.980200
      3 O9           1.9540     0.0000     1.0530 o          1 3HA      -0.888800
      4 C2           2.0850     0.0020    -1.2750 ca         1 3HA      -0.121600
      5 C1           1.3940     0.1260    -2.4850 ca         1 3HA      -0.065000
      6 C6           2.0860     0.1270    -3.6740 ca         1 3HA      -0.149000
      7 C5           3.4680     0.0100    -3.6830 ca         1 3HA      -0.172000
      8 C4           4.1650    -0.1070    -2.4960 ca         1 3HA       0.043100
      9 O11          5.5210    -0.2220    -2.5130 oh         1 3HA      -0.505100
     10 C3           3.4810    -0.1100    -1.2810 ca         1 3HA       0.043600
     11 N10          4.1790    -0.2280    -0.0850 nv         1 3HA      -0.481200
     12 H1           0.3150     0.2180    -2.4870 ha         1 3HA       0.126000
     13 H6           1.5480     0.2210    -4.6100 ha         1 3HA       0.082000
     14 H5           4.0040     0.0120    -4.6250 ha         1 3HA       0.086000
     15 H11          5.7640    -1.0180    -2.9560 ho         1 3HA       0.381000
     16 H101         4.0560    -1.0390     0.4880 hn         1 3HA       0.265300
     17 H102         4.8360     0.4780     0.1820 hn         1 3HA       0.265300
@<TRIPOS>BOND
     1     1     2 1   
     2     2     3 1   
     3     2     4 1   
     4     4     5 ar  
     5     4    10 ar  
     6     5     6 ar  
     7     5    12 1   
     8     6     7 ar  
     9     6    13 1   
    10     7     8 ar  
    11     7    14 1   
    12     8     9 1   
    13     8    10 ar  
    14     9    15 1   
    15    10    11 1   
    16    11    16 1   
    17    11    17 1   
@<TRIPOS>SUBSTRUCTURE
     1 3HA         1 TEMP              0 ****  ****    0 ROOT
