@<TRIPOS>MOLECULE
3HB
   15    15     1     0     0
SMALL
bcc


@<TRIPOS>ATOM
      1 C1'        -0.0100    0.1020    0.0190 c         1 3HB      0.907200
      2 O1'         1.2500    0.1840   -0.0380 o         1 3HB     -0.830300
      3 O2'        -0.6690    0.0420    1.0950 o         1 3HB     -0.830300
      4 C1         -0.7810    0.0720   -1.2940 ca        1 3HB     -0.092600
      5 C2         -0.0950    0.1370   -2.5060 ca        1 3HB     -0.182000
      6 C3         -0.8110    0.1090   -3.7100 ca        1 3HB      0.081100
      7 C4         -2.2090    0.0180   -3.7210 ca        1 3HB     -0.185000
      8 C5         -2.8820   -0.0460   -2.5000 ca        1 3HB     -0.137000
      9 C6         -2.1790   -0.0190   -1.2980 ca        1 3HB     -0.137000
     10 O3         -0.1820    0.1700   -4.9430 oh        1 3HB     -0.530100
     11 H2          1.0040    0.2080   -2.4900 ha        1 3HB      0.153000
     12 H4         -2.7500   -0.0030   -4.6740 ha        1 3HB      0.119000
     13 H5         -3.9780   -0.1180   -2.4950 ha        1 3HB      0.105000
     14 H6         -2.6980   -0.0690   -0.3290 ha        1 3HB      0.151000
     15 HO3         0.7680    0.2290   -4.7710 ho        1 3HB      0.408000
@<TRIPOS>BOND
     1    1    2 1   
     2    1    3 1   
     3    1    4 1   
     4    4    5 ar  
     5    4    9 ar  
     6    5    6 ar  
     7    5   11 1   
     8    6    7 ar  
     9    6   10 1   
    10    7    8 ar  
    11    7   12 1   
    12    8    9 ar  
    13    8   13 1   
    14    9   14 1   
    15   10   15 1   
@<TRIPOS>SUBSTRUCTURE
     1 3HB         1 TEMP              0 ****  ****    0 ROOT
