@<TRIPOS>MOLECULE
molecule
   15    15     1     0     0
SMALL
bcc


@<TRIPOS>ATOM
      1 C1'          0.0000     0.0000     0.0000 c          1 3HB       0.883200
      2 O1'          1.2140     0.0000     0.0000 o          1 3HB      -0.836300
      3 O2'         -0.6750     0.0000     1.1660 o          1 3HB      -0.836300
      4 C1          -0.7380     0.0050    -1.2800 ca         1 3HB      -0.093600
      5 C2          -0.0420     0.0110    -2.4900 ca         1 3HB      -0.127000
      6 C3          -0.7400     0.0160    -3.6850 ca         1 3HB       0.060100
      7 C4          -2.1290     0.0150    -3.6790 ca         1 3HB      -0.177000
      8 C5          -2.8200     0.0110    -2.4820 ca         1 3HB      -0.156000
      9 C6          -2.1350    -0.0010    -1.2840 ca         1 3HB      -0.101000
     10 O3          -0.0670     0.0210    -4.8650 oh         1 3HB      -0.537100
     11 H2           1.0410     0.0110    -2.4930 ha         1 3HB       0.153000
     12 H4          -2.6730     0.0220    -4.6160 ha         1 3HB       0.109000
     13 H5          -3.9030     0.0080    -2.4840 ha         1 3HB       0.106000
     14 H6          -2.6800    -0.0050    -0.3480 ha         1 3HB       0.154000
     15 HO3          0.1290     0.9100    -5.1120 ho         1 3HB       0.399000
@<TRIPOS>BOND
     1     1     2 1
     2     1     3 1
     3     1     4 1
     4     4     5 ar
     5     4     9 ar
     6     5     6 ar
     7     5    11 1
     8     6     7 ar
     9     6    10 1
    10     7     8 ar
    11     7    12 1
    12     8     9 ar
    13     8    13 1
    14     9    14 1
    15    10    15 1
@<TRIPOS>SUBSTRUCTURE
     1 3HB         1 TEMP              0 ****  ****    0 ROOT
