@<TRIPOS>MOLECULE
molecule
   26    26     1     0     0
SMALL
bcc


@<TRIPOS>ATOM
      1 C1           0.0000     0.0000     0.0000 c3         1 3HD       0.103400
      2 C2           1.5300     0.0000     0.0000 c3         1 3HD       0.089100
      3 O2           2.0100     1.1670    -0.6710 oh         1 3HD      -0.578800
      4 C3           2.0300     0.0000     1.4490 c3         1 3HD       0.117100
      5 O3           3.4510     0.1540     1.4660 os         1 3HD      -0.388600
      6 CH3          4.0090    -1.1620     1.4280 c3         1 3HD       0.112700
      7 C4           1.3770     1.1680     2.1960 c3         1 3HD       0.122100
      8 O4           1.7080     1.1010     3.5850 oh         1 3HD      -0.605800
      9 C5          -0.1410     1.0810     2.0260 c3         1 3HD       0.133100
     10 O5          -0.4830     1.1760     0.6460 os         1 3HD      -0.366600
     11 C6          -0.8040     2.2280     2.7940 c3         1 3HD       0.149400
     12 O6          -2.2240     2.0760     2.7440 oh         1 3HD      -0.602800
     13 H1          -0.3590    -0.8740     0.5310 h1         1 3HD       0.053200
     14 HC1         -0.3590    -0.0210    -1.0220 h1         1 3HD       0.053200
     15 H2           1.8910    -0.8880    -0.5050 h1         1 3HD       0.036700
     16 HO2          2.1820     0.9610    -1.5760 ho         1 3HD       0.401000
     17 H3           1.7560    -0.9330     1.9260 h1         1 3HD       0.058700
     18 H31          3.7310    -1.6450     0.4990 h1         1 3HD       0.031700
     19 H32          3.6310    -1.7390     2.2630 h1         1 3HD       0.031700
     20 H33          5.0880    -1.0980     1.4930 h1         1 3HD       0.031700
     21 H4           1.7320     2.1030     1.7800 h1         1 3HD       0.074700
     22 HO4          2.3380     1.7730     3.7910 ho         1 3HD       0.413000
     23 H5          -0.4910     0.1330     2.4160 h1         1 3HD       0.056700
     24 H61         -0.5250     3.1730     2.3440 h1         1 3HD       0.036200
     25 H62         -0.4750     2.2090     3.8260 h1         1 3HD       0.036200
     26 HO6         -2.6300     2.7540     3.2590 ho         1 3HD       0.402000
@<TRIPOS>BOND
     1     1     2 1   
     2     1    10 1   
     3     1    13 1   
     4     1    14 1   
     5     2     3 1   
     6     2     4 1   
     7     2    15 1   
     8     3    16 1   
     9     4     5 1   
    10     4     7 1   
    11     4    17 1   
    12     5     6 1   
    13     6    18 1   
    14     6    19 1   
    15     6    20 1   
    16     7     8 1   
    17     7     9 1   
    18     7    21 1   
    19     8    22 1   
    20     9    10 1   
    21     9    11 1   
    22     9    23 1   
    23    11    12 1   
    24    11    24 1   
    25    11    25 1   
    26    12    26 1   
@<TRIPOS>SUBSTRUCTURE
     1 3HD         1 TEMP              0 ****  ****    0 ROOT
