@<TRIPOS>MOLECULE
3HD
   26    26     1     0     0
SMALL
bcc


@<TRIPOS>ATOM
      1 C1         -0.0320   -0.0380    0.0750 c3        1 3HD      0.095400
      2 C2          1.4880   -0.1910    0.1640 c3        1 3HD      0.086100
      3 O2          2.1460    0.7540   -0.6540 oh        1 3HD     -0.580800
      4 C3          1.9450   -0.1120    1.6280 c3        1 3HD      0.069100
      5 O3          3.3510    0.0880    1.7520 os        1 3HD     -0.423600
      6 CH3         4.1350   -0.9320    1.1540 c3        1 3HD      0.114700
      7 C4          1.3220    1.0950    2.3570 c3        1 3HD      0.123100
      8 O4          1.5470    0.9970    3.7520 oh        1 3HD     -0.594800
      9 C5         -0.1970    1.1170    2.1430 c3        1 3HD      0.094100
     10 O5         -0.4850    1.1310    0.7430 os        1 3HD     -0.423600
     11 C6         -0.8130    2.3970    2.7140 c3        1 3HD      0.141400
     12 O6         -2.2210    2.3660    2.6320 oh        1 3HD     -0.594800
     13 H1         -0.5350   -0.9450    0.5010 h1        1 3HD      0.065700
     14 HC1        -0.3450    0.1210   -0.9920 h1        1 3HD      0.065700
     15 H2          1.7900   -1.1850   -0.2750 h1        1 3HD      0.082700
     16 HO2         1.9390    1.6290   -0.3010 ho        1 3HD      0.411000
     17 H3          1.6570   -1.0640    2.1550 h1        1 3HD      0.058700
     18 H31         4.0450   -0.8840    0.0410 h1        1 3HD      0.041367
     19 H32         5.1810   -0.6950    1.4740 h1        1 3HD      0.041367
     20 H33         3.8290   -1.9400    1.5270 h1        1 3HD      0.041367
     21 H4          1.7840    2.0430    1.9610 h1        1 3HD      0.057700
     22 HO4         2.5040    0.9230    3.8690 ho        1 3HD      0.424000
     23 H5         -0.6690    0.2140    2.6190 h1        1 3HD      0.070700
     24 H61        -0.5750    2.4610    3.8090 h1        1 3HD      0.062700
     25 H62        -0.4080    3.2920    2.1720 h1        1 3HD      0.062700
     26 HO6        -2.4480    2.2710    1.6980 ho        1 3HD      0.410000
@<TRIPOS>BOND
     1    1    2 1   
     2    1   10 1   
     3    1   13 1   
     4    1   14 1   
     5    2    3 1   
     6    2    4 1   
     7    2   15 1   
     8    3   16 1   
     9    4    5 1   
    10    4    7 1   
    11    4   17 1   
    12    5    6 1   
    13    6   18 1   
    14    6   19 1   
    15    6   20 1   
    16    7    8 1   
    17    7    9 1   
    18    7   21 1   
    19    8   22 1   
    20    9   10 1   
    21    9   11 1   
    22    9   23 1   
    23   11   12 1   
    24   11   24 1   
    25   11   25 1   
    26   12   26 1   
@<TRIPOS>SUBSTRUCTURE
     1 3HD         1 TEMP              0 ****  ****    0 ROOT
