@<TRIPOS>MOLECULE
molecule
   43    44     1     0     0
SMALL
bcc


@<TRIPOS>ATOM
      1 C1           0.0000     0.0000     0.0000 c3         1 3HE      -0.081700
      2 C2           1.5290     0.0000     0.0000 c3         1 3HE      -0.066400
      3 C3           2.0380     0.0000     1.4450 c3         1 3HE      -0.171700
      4 C4           1.4160    -1.1700     2.1750 c          1 3HE       0.585100
      5 C5          -0.0860    -1.3380     2.1090 c3         1 3HE      -0.192700
      6 C6          -0.5190    -1.2890     0.6400 c3         1 3HE      -0.062400
      7 C12         -2.4420    -6.5440     3.4150 c          1 3HE       0.696500
      8 N           -3.5640    -6.5340     4.1500 ns         1 3HE      -0.573500
      9 C11         -4.3060    -5.4300     4.3210 c          1 3HE       0.696500
     10 O1          -5.3060    -5.4850     5.0050 o          1 3HE      -0.609000
     11 C10         -3.9210    -4.1220     3.6810 c3         1 3HE      -0.154400
     12 C13         -1.9460    -5.2990     2.7280 c3         1 3HE      -0.154400
     13 C9          -2.3980    -4.0700     3.5200 c3         1 3HE      -0.078700
     14 C7          -0.4790    -2.6860     2.7160 c3         1 3HE       0.158100
     15 O3           0.0500    -3.7430     1.9120 oh         1 3HE      -0.610800
     16 O            2.1000    -1.9500     2.7930 o          1 3HE      -0.536100
     17 C14          3.5620    -0.1420     1.4530 c3         1 3HE      -0.085100
     18 C           -0.5070     1.2030     0.7980 c3         1 3HE      -0.094100
     19 H1          -0.3580     0.0620    -1.0210 hc         1 3HE       0.058700
     20 H2           1.8890    -0.8860    -0.5090 hc         1 3HE       0.052200
     21 H3           1.8890     0.8860    -0.5090 hc         1 3HE       0.052200
     22 H4           1.7510     0.9250     1.9300 hc         1 3HE       0.075700
     23 H5          -0.5650    -0.5340     2.6550 hc         1 3HE       0.079700
     24 H6          -1.6000    -1.3090     0.5830 hc         1 3HE       0.058700
     25 H7          -0.1080    -2.1420     0.1150 hc         1 3HE       0.058700
     26 H9          -4.2450    -3.3030     4.3110 hc         1 3HE       0.088200
     27 H10         -4.3890    -4.0450     2.7070 hc         1 3HE       0.088200
     28 H11         -2.3560    -5.2530     1.7260 hc         1 3HE       0.088200
     29 H12         -0.8640    -5.3190     2.6810 hc         1 3HE       0.088200
     30 H13         -1.9310    -4.0780     4.4970 hc         1 3HE       0.062700
     31 H16         -0.0790    -2.7610     3.7200 h1         1 3HE       0.051700
     32 H17          0.8180    -4.0990     2.3270 ho         1 3HE       0.420000
     33 H18          3.8270    -1.1920     1.4990 hc         1 3HE       0.044700
     34 H19          3.9680     0.3710     2.3160 hc         1 3HE       0.044700
     35 H20          3.9700     0.2940     0.5490 hc         1 3HE       0.044700
     36 H21         -1.5910     1.2120     0.7880 hc         1 3HE       0.036033
     37 H22         -0.1560     1.1330     1.8200 hc         1 3HE       0.036033
     38 H23         -0.1350     2.1160     0.3500 hc         1 3HE       0.036033
     39 C8          -2.0040    -2.7980     2.7670 c3         1 3HE      -0.081400
     40 H8          -3.8590    -7.3840     4.5880 hn         1 3HE       0.344500
     41 O2          -1.8100    -7.5730     3.3080 o          1 3HE      -0.609000
     42 H14         -2.4130    -1.9350     3.2780 hc         1 3HE       0.057700
     43 H15         -2.3970    -2.8390     1.7580 hc         1 3HE       0.057700
@<TRIPOS>BOND
     1    17     3 1
     2     3     4 1
     3     3     2 1
     4    16     4 2
     5     4     5 1
     6    18     1 1
     7     2     1 1
     8     5    14 1
     9     5     6 1
    10     1     6 1
    11    14    39 1
    12    14    15 1
    13    11     9 1
    14    11    13 1
    15    10     9 2
    16    39    13 1
    17     9     8 1
    18    13    12 1
    19    12     7 1
    20     8     7 1
    21     7    41 2
    22     1    19 1
    23     2    20 1
    24     2    21 1
    25     3    22 1
    26     5    23 1
    27     6    24 1
    28     6    25 1
    29     8    40 1
    30    11    26 1
    31    11    27 1
    32    12    28 1
    33    12    29 1
    34    13    30 1
    35    39    42 1
    36    39    43 1
    37    14    31 1
    38    15    32 1
    39    17    33 1
    40    17    34 1
    41    17    35 1
    42    18    36 1
    43    18    37 1
    44    18    38 1
@<TRIPOS>SUBSTRUCTURE
     1 3HE         1 TEMP              0 ****  ****    0 ROOT
