@<TRIPOS>MOLECULE
molecule
   90    93     1     0     0
SMALL
bcc


@<TRIPOS>ATOM
      1 C1           0.0000     0.0000     0.0000 ca         1 3HF      -0.128000
      2 C2           2.0220     4.8700    -1.9960 ca         1 3HF      -0.152000
      3 C3           1.3820     0.0000     0.0000 ca         1 3HF      -0.119500
      4 C4          -0.6900     0.0010     1.1970 ca         1 3HF      -0.119500
      5 C5           3.1950     5.3370    -2.5680 ca         1 3HF      -0.107000
      6 C6           2.7010     2.7430    12.1130 ca         1 3HF      -0.086000
      7 C7           2.0540     4.1940    -0.7940 ca         1 3HF      -0.068000
      8 C8           2.0740     0.0000     1.1970 ca         1 3HF      -0.117000
      9 C9           0.0010    -0.0040     2.3950 ca         1 3HF      -0.117000
     10 C10          2.1280     2.5240    10.8740 ca         1 3HF      -0.143000
     11 C11          4.4090     5.1280    -1.9490 ca         1 3HF      -0.132000
     12 C12          3.2640     1.6920    12.8110 ca         1 3HF      -0.221000
     13 C13          2.6670     0.1950    11.0300 ca         1 3HF      -0.159000
     14 C14          5.0220     3.4330     1.1940 cc         1 3HF      -0.040400
     15 C15          3.2740     3.9830    -0.1560 ca         1 3HF      -0.060800
     16 C16          3.6690     3.3200     1.1020 cd         1 3HF      -0.193400
     17 C17          1.3830     0.0010     2.3940 ca         1 3HF      -0.069300
     18 C18          2.1110     1.2520    10.3330 ca         1 3HF      -0.085300
     19 C19          4.4630     4.4450    -0.7400 ca         1 3HF       0.016600
     20 C20          3.2530     0.4150    12.2670 ca         1 3HF       0.138100
     21 C23         12.1810     4.2540     1.5680 c3         1 3HF      -0.090100
     22 C24          5.9360    -0.7080    -2.4610 c3         1 3HF      -0.090100
     23 C25          4.7610    -0.2310    13.9880 c3         1 3HF       0.128700
     24 C26          2.1370     0.0000     3.7000 c3         1 3HF      -0.045100
     25 C28         11.3560     4.1280     0.2850 c3         1 3HF      -0.082900
     26 C29          6.3920    -0.0820    -1.1410 c3         1 3HF      -0.082900
     27 C30          9.9040     3.8090     0.6440 c3         1 3HF      -0.104900
     28 C31          6.8200     1.3660    -1.3840 c3         1 3HF      -0.104900
     29 C32          9.0790     3.6840    -0.6380 c3         1 3HF       0.103000
     30 C33          7.2770     1.9910    -0.0630 c3         1 3HF       0.103000
     31 C35          2.3930     1.4430     4.1400 c3         1 3HF       0.120700
     32 C36          3.0460     1.4450     5.5240 c3         1 3HF       0.135100
     33 N37          5.5030     4.0980     0.1050 n          1 3HF      -0.232200
     34 N38          3.2840     2.0970     3.1790 ns         1 3HF      -0.583900
     35 N40          7.6870     3.3780    -0.2960 n          1 3HF      -0.487800
     36 O42          7.1770     5.5340    -0.1480 o          1 3HF      -0.582100
     37 O43          4.2270     0.6400     5.4940 oh         1 3HF      -0.595800
     38 O44          3.9930    -0.5750    12.8330 os         1 3HF      -0.328900
     39 H1          -0.5420     0.0020    -0.9380 ha         1 3HF       0.123000
     40 H2           1.0740     5.0410    -2.4930 ha         1 3HF       0.133000
     41 H3           1.9230    -0.0010    -0.9380 ha         1 3HF       0.123500
     42 H4          -1.7730    -0.0010     1.1980 ha         1 3HF       0.123500
     43 H5           3.1580     5.8670    -3.5120 ha         1 3HF       0.133000
     44 H6           2.7110     3.7400    12.5360 ha         1 3HF       0.133000
     45 H7           1.1360     3.8300    -0.3490 ha         1 3HF       0.161000
     46 H8           3.1580     0.0020     1.1970 ha         1 3HF       0.121500
     47 H9          -0.5410    -0.0030     3.3330 ha         1 3HF       0.121500
     48 H10          1.6890     3.3500    10.3280 ha         1 3HF       0.128000
     49 H11          5.3200     5.4980    -2.4040 ha         1 3HF       0.139000
     50 H12          3.7160     1.8650    13.7790 ha         1 3HF       0.135000
     51 H13          2.6560    -0.8010    10.6040 ha         1 3HF       0.148000
     52 H14          5.6260     3.0560     2.0100 h4         1 3HF       0.168000
     53 H23         12.1450     3.3190     2.1140 hc         1 3HF       0.035533
     54 H23A        11.7740     5.0470     2.1830 hc         1 3HF       0.035533
     55 H23B        13.2090     4.4860     1.3150 hc         1 3HF       0.035533
     56 H24          5.1690    -0.0870    -2.9080 hc         1 3HF       0.035533
     57 H24A         5.5350    -1.6960    -2.2720 hc         1 3HF       0.035533
     58 H24B         6.7790    -0.7830    -3.1360 hc         1 3HF       0.035533
     59 H25          5.2990    -1.1040    14.3370 h1         1 3HF       0.041033
     60 H25A         5.4670     0.5500    13.7330 h1         1 3HF       0.041033
     61 H25B         4.0990     0.1210    14.7700 h1         1 3HF       0.041033
     62 H26          1.5510    -0.5090     4.4550 hc         1 3HF       0.060200
     63 H26A         3.0830    -0.5110     3.5710 hc         1 3HF       0.060200
     64 H27          1.4000    -0.5560     9.1420 h1         1 3HF       0.047700
     65 H27A         0.9440     0.9820     8.3950 h1         1 3HF       0.047700
     66 H28         11.7600     3.3310    -0.3270 hc         1 3HF       0.041950
     67 H28A        11.3960     5.0610    -0.2630 hc         1 3HF       0.041950
     68 H29          7.2300    -0.6450    -0.7460 hc         1 3HF       0.041950
     69 H29A         5.5760    -0.1030    -0.4300 hc         1 3HF       0.041950
     70 H30          9.5000     4.6060     1.2570 hc         1 3HF       0.051700
     71 H30A         9.8640     2.8760     1.1920 hc         1 3HF       0.051700
     72 H31          5.9830     1.9290    -1.7790 hc         1 3HF       0.051700
     73 H31A         7.6370     1.3870    -2.0950 hc         1 3HF       0.051700
     74 H32          9.4830     2.8880    -1.2520 h1         1 3HF       0.059700
     75 H32A         9.1190     4.6180    -1.1860 h1         1 3HF       0.059700
     76 H33          8.1140     1.4280     0.3310 h1         1 3HF       0.059700
     77 H33A         6.4600     1.9690     0.6480 h1         1 3HF       0.059700
     78 H34          1.8740    -0.1670     6.3270 h1         1 3HF       0.046200
     79 H34A         1.1380     1.4310     6.5120 h1         1 3HF       0.046200
     80 H35          1.4530     1.9790     4.1840 h1         1 3HF       0.086700
     81 H36          3.3080     2.4590     5.7980 h1         1 3HF       0.036700
     82 HN38         4.2650     2.1570     3.3670 hn         1 3HF       0.309500
     83 HN39         2.8410     1.9480     8.0970 hn         1 3HF       0.368800
     84 HO43         4.9370     1.1090     5.9010 ho         1 3HF       0.406000
     85 C34          2.0670     0.8750     6.5520 c3         1 3HF       0.141800
     86 C21          2.7750     2.6640     2.0660 c          1 3HF       0.698300
     87 N39          2.6480     0.9870     7.8960 n7         1 3HF      -0.835200
     88 C22          6.8020     4.3790    -0.1140 c          1 3HF       0.785100
     89 C27          1.7330     0.4490     8.9120 c3         1 3HF       0.231100
     90 O41          1.5770     2.6330     1.8620 o          1 3HF      -0.593100
@<TRIPOS>BOND
     1     3     1 ar
     2     1     4 ar
     3     1    39 1
     4     7     2 ar
     5     2     5 ar
     6     2    40 1
     7     8     3 ar
     8     3    41 1
     9     9     4 ar
    10     4    42 1
    11     5    11 ar
    12     5    43 1
    13    12     6 ar
    14     6    10 ar
    15     6    44 1
    16     7    15 ar
    17     7    45 1
    18     8    17 ar
    19     8    46 1
    20    17     9 ar
    21     9    47 1
    22    10    18 ar
    23    10    48 1
    24    19    11 ar
    25    11    49 1
    26    12    20 ar
    27    12    50 1
    28    20    13 ar
    29    13    18 ar
    30    13    51 1
    31    16    14 2
    32    14    33 1
    33    14    52 1
    34    16    15 1
    35    15    19 ar
    36    86    16 1
    37    24    17 1
    38    18    89 1
    39    19    33 1
    40    38    20 1
    41    90    86 2
    42    86    34 1
    43    33    88 1
    44    88    35 1
    45    88    36 2
    46    25    21 1
    47    21    53 1
    48    21    54 1
    49    21    55 1
    50    26    22 1
    51    22    56 1
    52    22    57 1
    53    22    58 1
    54    23    38 1
    55    23    59 1
    56    23    60 1
    57    23    61 1
    58    31    24 1
    59    24    62 1
    60    24    63 1
    61    89    87 1
    62    89    64 1
    63    89    65 1
    64    25    27 1
    65    25    66 1
    66    25    67 1
    67    26    28 1
    68    26    68 1
    69    26    69 1
    70    29    27 1
    71    27    70 1
    72    27    71 1
    73    28    30 1
    74    28    72 1
    75    28    73 1
    76    29    35 1
    77    29    74 1
    78    29    75 1
    79    35    30 1
    80    30    76 1
    81    30    77 1
    82    87    85 1
    83    85    32 1
    84    85    78 1
    85    85    79 1
    86    32    31 1
    87    31    34 1
    88    31    80 1
    89    37    32 1
    90    32    81 1
    91    34    82 1
    92    87    83 1
    93    37    84 1
@<TRIPOS>SUBSTRUCTURE
     1 3HF         1 TEMP              0 ****  ****    0 ROOT
