@<TRIPOS>MOLECULE
3HG
   16    15     1     0     0
SMALL
bcc


@<TRIPOS>ATOM
      1 O2         -0.2880    0.0920    0.1730 oh        1 3HG     -0.671800
      2 O1          3.1080    2.1120   -2.3870 o         1 3HG     -0.876550
      3 C1          2.3410    1.1450   -2.0800 c         1 3HG      0.905100
      4 O3          2.2570    0.1030   -2.7950 o         1 3HG     -0.876550
      5 C2          1.4640    1.3150   -0.8370 c3        1 3HG     -0.195900
      6 C3          1.1170    0.0290   -0.0910 c3        1 3HG      0.171100
      7 C4          1.9090   -0.1070    1.2050 c3        1 3HG     -0.195900
      8 C5          1.6100   -1.3510    2.0440 c         1 3HG      0.905100
      9 O4          0.4570   -1.8870    2.0150 o         1 3HG     -0.876550
     10 O5          2.5280   -1.7950    2.7990 o         1 3HG     -0.876550
     11 HO2        -0.4890   -0.6610    0.7490 ho        1 3HG      0.428000
     12 H21         0.5110    1.7970   -1.1820 hc        1 3HG      0.026200
     13 H22         1.9690    2.0330   -0.1420 hc        1 3HG      0.026200
     14 H3          1.3150   -0.8600   -0.7550 h1        1 3HG      0.055700
     15 H41         1.6980    0.7800    1.8570 hc        1 3HG      0.026200
     16 H42         3.0000   -0.0990    0.9550 hc        1 3HG      0.026200
@<TRIPOS>BOND
     1    1    6 1   
     2    1   11 1   
     3    2    3 1   
     4    3    4 1   
     5    3    5 1   
     6    5    6 1   
     7    5   12 1   
     8    5   13 1   
     9    6    7 1   
    10    6   14 1   
    11    7    8 1   
    12    7   15 1   
    13    7   16 1   
    14    8    9 1   
    15    8   10 1   
@<TRIPOS>SUBSTRUCTURE
     1 3HG         1 TEMP              0 ****  ****    0 ROOT
