@<TRIPOS>MOLECULE
molecule
   16    15     1     0     0
SMALL
bcc


@<TRIPOS>ATOM
      1 O2           0.0000     0.0000     0.0000 oh         1 3HG      -0.613800
      2 O1           1.8820     2.1850    -3.0050 o          1 3HG      -0.879800
      3 C1           1.5400     1.1890    -2.1740 c          1 3HG       0.899100
      4 O3           0.9130     0.2440    -2.5890 o          1 3HG      -0.879800
      5 C2           1.9390     1.2490    -0.7210 c3         1 3HG      -0.197400
      6 C3           1.4300     0.0000     0.0000 c3         1 3HG       0.183100
      7 C4           1.9390     0.0000     1.4420 c3         1 3HG      -0.197400
      8 C5           1.5400    -1.2880     2.1170 c          1 3HG       0.899100
      9 O4           0.9130    -2.1200     1.5060 o          1 3HG      -0.879800
     10 O5           1.8820    -1.5100     3.3950 o          1 3HG      -0.879800
     11 HO2         -0.3140    -0.7700    -0.4440 ho         1 3HG       0.403000
     12 H21          1.5070     2.1310    -0.2640 hc         1 3HG       0.025200
     13 H22          3.0190     1.2950    -0.6450 hc         1 3HG       0.025200
     14 H3           1.7910    -0.8840    -0.5110 h1         1 3HG       0.043700
     15 H41          1.5070     0.8370     1.9780 hc         1 3HG       0.025200
     16 H42          3.0190     0.0890     1.4440 hc         1 3HG       0.025200
@<TRIPOS>BOND
     1     1     6 1   
     2     1    11 1   
     3     2     3 1   
     4     3     4 1   
     5     3     5 1   
     6     5     6 1   
     7     5    12 1   
     8     5    13 1   
     9     6     7 1   
    10     6    14 1   
    11     7     8 1   
    12     7    15 1   
    13     7    16 1   
    14     8     9 1   
    15     8    10 1   
@<TRIPOS>SUBSTRUCTURE
     1 3HG         1 TEMP              0 ****  ****    0 ROOT
