@<TRIPOS>MOLECULE
molecule
   82    85     1     0     0
SMALL
bcc


@<TRIPOS>ATOM
      1 C1           0.0000     0.0000     0.0000 ca         1 3HH      -0.024000
      2 F1          -2.0440     2.2160    -5.4090 f          1 3HH      -0.137400
      3 N1           3.4430     0.0000     0.9100 n          1 3HH      -0.229200
      4 C2           3.6210     0.0000    -0.4410 cc         1 3HH      -0.033400
      5 F2           0.4650     3.8170    -1.7230 f          1 3HH      -0.137400
      6 N2          -3.2520     0.0010     1.2580 n1         1 3HH      -0.366800
      7 C3           2.4110     0.0010    -1.0640 cd         1 3HH      -0.191400
      8 C4           1.3880     0.0000     0.0000 ca         1 3HH      -0.067800
      9 C5           1.3940    -0.0000     2.4180 ca         1 3HH      -0.132000
     10 C6           2.0940     0.0000     1.2160 ca         1 3HH       0.032600
     11 C8           6.2090    -2.5630     6.5050 c3         1 3HH      -0.090100
     12 C9           0.0290    -0.0050     2.4190 ca         1 3HH      -0.074000
     13 C10         -0.6850     0.0010     1.2150 ca         1 3HH      -0.044000
     14 C11          4.4390    -0.0000     1.8190 c          1 3HH       0.783100
     15 N12          5.2840    -1.0470     1.8920 n          1 3HH      -0.490800
     16 C13          5.1880    -2.1360     0.9160 c3         1 3HH       0.086300
     17 C14          6.2990    -1.0970     2.9460 c3         1 3HH       0.115000
     18 C15          5.7230    -1.8040     4.1740 c3         1 3HH      -0.104400
     19 C18          6.7840    -1.8560     5.2770 c3         1 3HH      -0.082400
     20 O33          4.5740     0.9440     2.5710 o          1 3HH      -0.573100
     21 C34          2.1700    -0.0000    -2.5150 c          1 3HH       0.699300
     22 N35          3.2110    -0.0000    -3.3700 ns         1 3HH      -0.581900
     23 C36          2.9710    -0.0010    -4.8150 c3         1 3HH       0.122700
     24 C37          4.1770    -0.6100    -5.5330 c3         1 3HH       0.134100
     25 C38          3.8760    -0.7250    -7.0290 c3         1 3HH       0.135800
     26 N39          4.9830    -1.4190    -7.6990 n7         1 3HH      -0.813200
     27 C42          4.7290    -1.5470    -9.1400 c3         1 3HH       0.207100
     28 C43          5.8840    -2.2630    -9.7930 ca         1 3HH      -0.054300
     29 O46          1.0310    -0.0000    -2.9410 o          1 3HH      -0.598100
     30 C48          2.7640     1.4360    -5.2980 c3         1 3HH      -0.046100
     31 C50          1.5060     1.9960    -4.6840 ca         1 3HH      -0.021300
     32 C53          1.5630     2.6560    -3.4720 ca         1 3HH      -0.174000
     33 C54          0.4080     3.1710    -2.9080 ca         1 3HH       0.167400
     34 C55         -0.8050     3.0230    -3.5590 ca         1 3HH      -0.208000
     35 C56         -0.8610     2.3620    -4.7730 ca         1 3HH       0.167400
     36 C57          0.2960     1.8530    -5.3380 ca         1 3HH      -0.174000
     37 O63          5.3190     0.2260    -5.3400 oh         1 3HH      -0.596800
     38 C67          5.8700    -3.6400    -9.9020 ca         1 3HH      -0.158000
     39 C68          6.9340    -4.2980   -10.5030 ca         1 3HH       0.141100
     40 C69          8.0080    -3.5710   -10.9930 ca         1 3HH      -0.218000
     41 C70          8.0170    -2.1940   -10.8810 ca         1 3HH      -0.091000
     42 C71          6.9540    -1.5400   -10.2870 ca         1 3HH      -0.143000
     43 O76          6.9220    -5.6520   -10.6110 os         1 3HH      -0.330900
     44 C77          8.0510    -6.2620   -11.2410 c3         1 3HH       0.129700
     45 H1          -0.5420    -0.1440    -0.9270 ha         1 3HH       0.171000
     46 H2           4.5810     0.0020    -0.9430 h4         1 3HH       0.171000
     47 H5           1.9340    -0.0050     3.3570 ha         1 3HH       0.147000
     48 H8           6.9810    -2.6670     7.2570 hc         1 3HH       0.036033
     49 H8A          5.3900    -1.9790     6.9070 hc         1 3HH       0.036033
     50 H8B          5.8470    -3.5440     6.2210 hc         1 3HH       0.036033
     51 H9          -0.5070    -0.0040     3.3610 ha         1 3HH       0.146000
     52 H13          5.5400    -1.7890    -0.0480 h1         1 3HH       0.045033
     53 H13A         5.7950    -2.9700     1.2440 h1         1 3HH       0.045033
     54 H13B         4.1550    -2.4530     0.8300 h1         1 3HH       0.045033
     55 H14          7.1650    -1.6410     2.5890 h1         1 3HH       0.064700
     56 H14A         6.5910    -0.0880     3.2140 h1         1 3HH       0.064700
     57 H15          4.8580    -1.2600     4.5320 hc         1 3HH       0.051200
     58 H15A         5.4310    -2.8120     3.9070 hc         1 3HH       0.051200
     59 H18          7.6500    -2.4000     4.9190 hc         1 3HH       0.042700
     60 H18A         7.0760    -0.8480     5.5440 hc         1 3HH       0.042700
     61 HN35         4.1470    -0.0440    -3.0180 hn         1 3HH       0.312500
     62 H36          2.0860    -0.5870    -5.0340 h1         1 3HH       0.088700
     63 H37          4.3770    -1.5940    -5.1280 h1         1 3HH       0.035700
     64 H38          3.7620     0.2660    -7.4520 h1         1 3HH       0.047200
     65 H38A         2.9600    -1.2850    -7.1710 h1         1 3HH       0.047200
     66 HN39         5.0980    -2.3290    -7.2980 hn         1 3HH       0.351800
     67 H42          3.8180    -2.1130    -9.2970 h1         1 3HH       0.042700
     68 H42A         4.6210    -0.5620    -9.5770 h1         1 3HH       0.042700
     69 H48          3.6110     2.0420    -5.0020 hc         1 3HH       0.066700
     70 H48A         2.6730     1.4450    -6.3780 hc         1 3HH       0.066700
     71 H53          2.5200     2.8200    -2.9910 ha         1 3HH       0.143000
     72 H55         -1.6990     3.4750    -3.1460 ha         1 3HH       0.157000
     73 H57          0.2610     1.3800    -6.3120 ha         1 3HH       0.143000
     74 HO63         6.0740    -0.3100    -5.1600 ho         1 3HH       0.409000
     75 H67          5.0290    -4.2050    -9.5180 ha         1 3HH       0.140000
     76 H69          8.8410    -4.0820   -11.4610 ha         1 3HH       0.135000
     77 H70          8.8550    -1.6250   -11.2650 ha         1 3HH       0.132000
     78 H71          6.9630    -0.4600   -10.2000 ha         1 3HH       0.138000
     79 H77          8.1380    -5.8970   -12.2570 h1         1 3HH       0.041700
     80 H77A         8.9500    -6.0140   -10.6900 h1         1 3HH       0.041700
     81 H77B         7.9200    -7.3370   -11.2540 h1         1 3HH       0.041700
     82 C7          -2.1170     0.0060     1.2290 cg         1 3HH       0.245800
@<TRIPOS>BOND
     1     8     1 ar  
     2     1    13 ar  
     3     1    45 1   
     4     2    35 1   
     5    14     3 1   
     6     4     3 1   
     7     3    10 1   
     8     4     7 2   
     9     4    46 1   
    10     5    33 1   
    11    82     6 3   
    12     7    21 1   
    13     7     8 1   
    14    10     8 ar  
    15    10     9 ar  
    16     9    12 ar  
    17     9    47 1   
    18    13    82 1   
    19    11    19 1   
    20    11    48 1   
    21    11    49 1   
    22    11    50 1   
    23    12    13 ar  
    24    12    51 1   
    25    15    14 1   
    26    14    20 2   
    27    16    15 1   
    28    17    15 1   
    29    16    52 1   
    30    16    53 1   
    31    16    54 1   
    32    17    18 1   
    33    17    55 1   
    34    17    56 1   
    35    18    19 1   
    36    18    57 1   
    37    18    58 1   
    38    19    59 1   
    39    19    60 1   
    40    29    21 2   
    41    21    22 1   
    42    23    22 1   
    43    22    61 1   
    44    30    23 1   
    45    23    24 1   
    46    23    62 1   
    47    37    24 1   
    48    24    25 1   
    49    24    63 1   
    50    25    26 1   
    51    25    64 1   
    52    25    65 1   
    53    26    27 1   
    54    26    66 1   
    55    28    27 1   
    56    27    67 1   
    57    27    68 1   
    58    38    28 ar  
    59    42    28 ar  
    60    31    30 1   
    61    30    69 1   
    62    30    70 1   
    63    36    31 ar  
    64    32    31 ar  
    65    33    32 ar  
    66    32    71 1   
    67    34    33 ar  
    68    34    35 ar  
    69    34    72 1   
    70    35    36 ar  
    71    36    73 1   
    72    37    74 1   
    73    39    38 ar  
    74    38    75 1   
    75    43    39 1   
    76    40    39 ar  
    77    40    41 ar  
    78    40    76 1   
    79    41    42 ar  
    80    41    77 1   
    81    42    78 1   
    82    44    43 1   
    83    44    79 1   
    84    44    80 1   
    85    44    81 1   
@<TRIPOS>SUBSTRUCTURE
     1 3HH         1 TEMP              0 ****  ****    0 ROOT
