@<TRIPOS>MOLECULE
3HI
   76    79     1     0     0
SMALL
bcc


@<TRIPOS>ATOM
      1 N1           0.0000     0.0000     0.0000 na         1 3HI       0.492900
      2 C5           1.3700     0.0000     0.0000 cc         1 3HI      -0.245300
      3 C6          -1.9290    -0.0120     1.6480 c3         1 3HI       0.042600
      4 C7          -0.8350    -0.0000    -1.2040 c3         1 3HI      -0.098700
      5 C8          -1.0350    -1.4390    -1.6850 c3         1 3HI      -0.069400
      6 C10         -2.1170    -2.8710    -3.4230 c3         1 3HI      -0.075400
      7 C13         -2.2420     1.2330     2.4800 c3         1 3HI      -0.017100
      8 C15          4.0310    -0.9720    -2.4640 ca         1 3HI      -0.124500
      9 C17          1.3030    -0.2140     6.7800 ca         1 3HI      -0.123000
     10 C20          1.3580     0.2290     8.0970 ca         1 3HI      -0.098000
     11 C21          2.0820     0.9850    -2.1730 ca         1 3HI      -0.080000
     12 C22          5.3500     0.0000     2.1180 ca         1 3HI      -0.104500
     13 C24          2.8950     0.9810    -3.2870 ca         1 3HI      -0.124500
     14 C26          3.1490     1.2140     6.2210 ca         1 3HI       0.092100
     15 C28          5.8490    -1.2870     2.0290 ca         1 3HI      -0.113000
     16 O7          -4.8980    -3.2180    -6.6130 o          1 3HI      -0.905800
     17 O6          -5.3680    -5.2990    -6.1470 o          1 3HI      -0.905800
     18 C35         -3.5110    -4.3000    -4.9470 c3         1 3HI      -0.174400
     19 C11         -3.0980    -2.8620    -4.6140 c3         1 3HI       0.225100
     20 O3          -2.4820    -2.2920    -5.7150 oh         1 3HI      -0.603800
     21 C9          -1.8070    -1.4320    -3.0060 c3         1 3HI       0.199100
     22 O4          -1.0170    -0.8020    -4.0160 oh         1 3HI      -0.575800
     23 C27          2.2370     0.0010    -1.1950 ca         1 3HI      -0.006000
     24 C30          3.8680     0.0050    -3.4350 ca         1 3HI       0.105900
     25 F1           4.6460    -0.0050    -4.5390 f          1 3HI      -0.131900
     26 C18          3.2190    -0.9810    -1.3490 ca         1 3HI      -0.080000
     27 C12         -0.4720    -0.0050     1.2620 cc         1 3HI      -0.228600
     28 C14         -2.3180    -1.2650     2.4450 c3         1 3HI      -0.017100
     29 C2           0.5790    -0.0030     2.1350 cd         1 3HI      -0.208600
     30 C1           1.8000     0.0000     1.3140 cd         1 3HI      -0.084000
     31 C31          3.1670    -0.8010     1.4970 ca         1 3HI       0.004000
     32 C25          4.0060     0.2450     1.8520 ca         1 3HI      -0.099000
     33 C19          5.0110    -2.3320     1.6740 ca         1 3HI      -0.104500
     34 C16          3.6670    -2.0870     1.4080 ca         1 3HI      -0.099000
     35 C3           0.4770     0.0170     3.7010 c          1 3HI       0.732700
     36 O1          -0.5870     0.0320     4.2250 o          1 3HI      -0.596100
     37 N2           1.7010     0.1280     4.5160 ns         1 3HI      -0.188100
     38 C32          2.2000     0.2810     5.8440 ca         1 3HI      -0.014400
     39 C23          3.2040     1.6570     7.5390 ca         1 3HI      -0.156000
     40 C29          2.3080     1.1630     8.4750 ca         1 3HI      -0.116000
     41 H6          -2.5410    -0.0120     0.7540 hc         1 3HI       0.021700
     42 H7          -0.3050     0.4910    -2.0100 h1         1 3HI       0.051700
     43 H7A         -1.7580     0.5300    -1.0030 h1         1 3HI       0.051700
     44 H8          -1.5010    -2.0210    -0.9000 hc         1 3HI       0.036700
     45 H8A         -0.0750    -1.8730    -1.9360 hc         1 3HI       0.036700
     46 H10         -1.2000    -3.3680    -3.7140 hc         1 3HI       0.025700
     47 H10A        -2.5660    -3.3990    -2.5910 hc         1 3HI       0.025700
     48 H13         -2.2020     0.9840     3.5330 hc         1 3HI       0.016200
     49 H13A        -1.5130     2.0050     2.2630 hc         1 3HI       0.016200
     50 H13B        -3.2330     1.5930     2.2310 hc         1 3HI       0.016200
     51 H15          4.7960    -1.7300    -2.5810 ha         1 3HI       0.116500
     52 H17          0.5520    -0.9350     6.4830 ha         1 3HI       0.128000
     53 H20          0.6580    -0.1570     8.8280 ha         1 3HI       0.101000
     54 H21          1.3230     1.7490    -2.0600 ha         1 3HI       0.123500
     55 H22          6.0040     0.8170     2.3960 ha         1 3HI       0.101500
     56 H24          2.7870     1.7520    -4.0400 ha         1 3HI       0.116500
     57 H28          6.8920    -1.4790     2.2490 ha         1 3HI       0.099000
     58 H35         -3.8600    -4.7930    -4.0480 hc         1 3HI       0.012200
     59 H35A        -2.6590    -4.8370    -5.3470 hc         1 3HI       0.012200
     60 H11         -3.9770    -2.2850    -4.3540 h1         1 3HI      -0.003300
     61 HO3         -3.1140    -1.7930    -6.2060 ho         1 3HI       0.416000
     62 H9          -2.7340    -0.8850    -2.8800 h1         1 3HI      -0.004300
     63 HO4         -1.5140    -0.1080    -4.4180 ho         1 3HI       0.388000
     64 H18          3.3450    -1.7470    -0.5940 ha         1 3HI       0.123500
     65 H14         -2.3660    -1.0210     3.5000 hc         1 3HI       0.016200
     66 H14A        -3.2860    -1.6190     2.1120 hc         1 3HI       0.016200
     67 H14B        -1.5760    -2.0380     2.2870 hc         1 3HI       0.016200
     68 H25          3.6150     1.2530     1.9230 ha         1 3HI       0.118000
     69 H19          5.4030    -3.3390     1.6040 ha         1 3HI       0.101500
     70 H16          2.9940    -2.9200     1.2420 ha         1 3HI       0.118000
     71 HN2          2.6000     0.0840     4.0780 hn         1 3HI       0.151500
     72 HO2          4.9590     1.8540     6.0060 ho         1 3HI       0.398000
     73 H23          3.9500     2.3850     7.8350 ha         1 3HI       0.116000
     74 H29          2.3740     1.4810     9.5080 ha         1 3HI       0.098000
     75 C36         -4.6380    -4.2790    -5.9900 c          1 3HI       0.999600
     76 O2           4.1080     2.0690     5.6620 oh         1 3HI      -0.501100
@<TRIPOS>BOND
     1     1     2 1   
     2     1     4 1   
     3     1    27 1   
     4     2    23 1   
     5     2    30 2   
     6     3     7 1   
     7     3    27 1   
     8     3    28 1   
     9     3    41 1   
    10     4     5 1   
    11     4    42 1   
    12     4    43 1   
    13     5    21 1   
    14     5    44 1   
    15     5    45 1   
    16     6    19 1   
    17     6    21 1   
    18     6    46 1   
    19     6    47 1   
    20     7    48 1   
    21     7    49 1   
    22     7    50 1   
    23     8    24 ar  
    24     8    26 ar  
    25     8    51 1   
    26     9    10 ar  
    27     9    38 ar  
    28     9    52 1   
    29    10    40 ar  
    30    10    53 1   
    31    11    13 ar  
    32    11    23 ar  
    33    11    54 1   
    34    12    15 ar  
    35    12    32 ar  
    36    12    55 1   
    37    13    24 ar  
    38    13    56 1   
    39    14    38 ar  
    40    14    39 ar  
    41    14    76 1   
    42    15    33 ar  
    43    15    57 1   
    44    16    75 1   
    45    17    75 1   
    46    18    19 1   
    47    18    58 1   
    48    18    59 1   
    49    18    75 1   
    50    19    20 1   
    51    19    60 1   
    52    20    61 1   
    53    21    22 1   
    54    21    62 1   
    55    22    63 1   
    56    23    26 ar  
    57    24    25 1   
    58    26    64 1   
    59    27    29 2   
    60    28    65 1   
    61    28    66 1   
    62    28    67 1   
    63    29    30 1   
    64    29    35 1   
    65    30    31 1   
    66    31    32 ar  
    67    31    34 ar  
    68    32    68 1   
    69    33    34 ar  
    70    33    69 1   
    71    34    70 1   
    72    35    36 2   
    73    35    37 1   
    74    37    38 1   
    75    37    71 1   
    76    39    40 ar  
    77    39    73 1   
    78    40    74 1   
    79    72    76 1   
@<TRIPOS>SUBSTRUCTURE
     1 3HI         1 TEMP              0 ****  ****    0 ROOT
