@<TRIPOS>MOLECULE
3HJ
   51    54     1     0     0
SMALL
bcc


@<TRIPOS>ATOM
      1 C13          0.0000     0.0000     0.0000 ca         1 3HJ      -0.027000
      2 C15         -2.8870     0.0010     2.3120 cc         1 3HJ      -0.319300
      3 N20         -7.6440    -0.0310     2.9330 ns         1 3HJ      -0.049100
      4 C21         -8.9170     0.0540     2.3580 ca         1 3HJ      -0.080400
      5 C23        -10.4270    -0.4670     0.5700 ca         1 3HJ      -0.084000
      6 C24        -11.4340     0.2220     1.2210 ca         1 3HJ      -0.114000
      7 C25        -11.1880     0.8180     2.4450 ca         1 3HJ      -0.084000
      8 C27         -4.1640    -0.0090     0.4820 cd         1 3HJ       0.406200
      9 C29          3.6950     0.4940    -3.6420 ca         1 3HJ      -0.232300
     10 C30          4.4200     0.3780    -4.8090 ca         1 3HJ       0.426200
     11 C02          6.0580    -0.8580    -3.7540 ca         1 3HJ       0.395600
     12 C03          5.3910    -0.7910    -2.5480 ca         1 3HJ      -0.261300
     13 C04          4.1840    -0.0990    -2.4780 ca         1 3HJ      -0.057400
     14 N05          3.4840    -0.0000    -1.2750 ns         1 3HJ      -0.030100
     15 C06          2.1370    -0.0000    -1.2790 c          1 3HJ       0.584700
     16 O07          1.5310     0.0000    -2.3330 o          1 3HJ      -0.620100
     17 C08          1.3950     0.0000     0.0000 ca         1 3HJ      -0.143600
     18 C09          2.0890     0.0000     1.2120 ca         1 3HJ      -0.097000
     19 C10          1.3940     0.0000     2.4040 ca         1 3HJ      -0.084000
     20 C11          0.0110     0.0010     2.4040 ca         1 3HJ      -0.109000
     21 C12         -0.6880     0.0000     1.2030 ca         1 3HJ      -0.138200
     22 N14         -2.0900     0.0010     1.2090 na         1 3HJ       0.621300
     23 C16         -4.1760    -0.0050     1.8850 cd         1 3HJ      -0.284700
     24 N17         -5.3210    -0.0120     2.7050 ns         1 3HJ       0.000900
     25 C18         -6.5480    -0.0240     2.1490 c          1 3HJ       0.552100
     26 O19         -6.6660    -0.0290     0.9380 o          1 3HJ      -0.691100
     27 C22         -9.1690    -0.5520     1.1340 ca         1 3HJ      -0.118500
     28 C26         -9.9310     0.7400     3.0120 ca         1 3HJ      -0.118500
     29 N28         -2.9190     0.0010     0.0800 nc         1 3HJ      -0.642800
     30 N31          5.5610    -0.2830    -4.8330 nb         1 3HJ      -0.593000
     31 H1          -0.5440    -0.0000    -0.9370 ha         1 3HJ       0.160000
     32 H2          -2.5550     0.0050     3.3430 h4         1 3HJ       0.150000
     33 H3          -7.5480    -0.1260     3.9250 hn         1 3HJ       0.159500
     34 H4         -10.6240    -0.9360    -0.3870 ha         1 3HJ       0.102500
     35 H5         -12.4200     0.2860     0.7770 ha         1 3HJ       0.102000
     36 H6         -11.9790     1.3550     2.9550 ha         1 3HJ       0.102500
     37 H7          -5.0370    -0.0130    -0.1590 h4         1 3HJ       0.062100
     38 H8           2.7590     1.0390    -3.6280 ha         1 3HJ       0.155000
     39 H9           4.0470     0.8350    -5.7180 h4         1 3HJ      -0.017900
     40 H10          7.7420    -1.5490    -4.8570 hc         1 3HJ       0.013367
     41 H11          8.0830    -1.1540    -3.1660 hc         1 3HJ       0.013367
     42 H12          7.2090    -2.6390    -3.5690 hc         1 3HJ       0.013367
     43 H13          5.8040    -1.2650    -1.6660 ha         1 3HJ       0.115000
     44 H14          3.9790    -0.0410    -0.4070 hn         1 3HJ       0.173500
     45 H15          3.1720    -0.0000     1.2160 ha         1 3HJ       0.103000
     46 H16          1.9330     0.0000     3.3430 ha         1 3HJ       0.108000
     47 H17         -0.5280     0.0010     3.3430 ha         1 3HJ       0.113000
     48 H18         -5.2230    -0.0100     3.7010 hn         1 3HJ       0.153500
     49 H19         -8.3810    -1.0910     0.6230 ha         1 3HJ       0.125000
     50 H20         -9.7390     1.2070     3.9710 ha         1 3HJ       0.125000
     51 C01          7.3650    -1.6020    -3.8430 c3         1 3HJ      -0.040400
@<TRIPOS>BOND
     1     1    17 ar  
     2     1    21 ar  
     3     1    31 1   
     4     2    22 1   
     5     2    23 2   
     6     2    32 1   
     7     3     4 1   
     8     3    25 1   
     9     3    33 1   
    10     4    27 ar  
    11     4    28 ar  
    12     5     6 ar  
    13     5    27 ar  
    14     5    34 1   
    15     6     7 ar  
    16     6    35 1   
    17     7    28 ar  
    18     7    36 1   
    19     8    23 1   
    20     8    29 2   
    21     8    37 1   
    22     9    10 ar  
    23     9    13 ar  
    24     9    38 1   
    25    10    30 ar  
    26    10    39 1   
    27    11    12 ar  
    28    11    30 ar  
    29    11    51 1   
    30    12    13 ar  
    31    12    43 1   
    32    13    14 1   
    33    14    15 1   
    34    14    44 1   
    35    15    16 2   
    36    15    17 1   
    37    17    18 ar  
    38    18    19 ar  
    39    18    45 1   
    40    19    20 ar  
    41    19    46 1   
    42    20    21 ar  
    43    20    47 1   
    44    21    22 1   
    45    22    29 1   
    46    23    24 1   
    47    24    25 1   
    48    24    48 1   
    49    25    26 2   
    50    27    49 1   
    51    28    50 1   
    52    40    51 1   
    53    41    51 1   
    54    42    51 1   
@<TRIPOS>SUBSTRUCTURE
     1 3HJ         1 TEMP              0 ****  ****    0 ROOT
