@<TRIPOS>MOLECULE
molecule
   51    54     1     0     0
SMALL
bcc


@<TRIPOS>ATOM
      1 C13          0.0000     0.0000     0.0000 ca         1 3HJ      -0.070000
      2 C15         -2.8870     0.0010     2.3120 cc         1 3HJ      -0.164300
      3 N20         -7.6440    -0.0310     2.9330 ns         1 3HJ      -0.488100
      4 C21         -8.9170     0.0540     2.3580 ca         1 3HJ       0.065600
      5 C23        -10.4270    -0.4670     0.5700 ca         1 3HJ      -0.113000
      6 C24        -11.4340     0.2220     1.2210 ca         1 3HJ      -0.143000
      7 C25        -11.1880     0.8180     2.4450 ca         1 3HJ      -0.113000
      8 C27         -4.1640    -0.0090     0.4820 cc         1 3HJ       0.354200
      9 C29          3.6950     0.4940    -3.6420 ca         1 3HJ      -0.259300
     10 C30          4.4200     0.3780    -4.8090 ca         1 3HJ       0.439200
     11 C02          6.0580    -0.8580    -3.7540 ca         1 3HJ       0.445600
     12 C03          5.3910    -0.7910    -2.5480 ca         1 3HJ      -0.293300
     13 C04          4.1840    -0.0990    -2.4780 ca         1 3HJ       0.091600
     14 N05          3.4840    -0.0000    -1.2750 ns         1 3HJ      -0.470100
     15 C06          2.1370    -0.0000    -1.2790 c          1 3HJ       0.676700
     16 O07          1.5310     0.0000    -2.3330 o          1 3HJ      -0.579100
     17 C08          1.3950     0.0000     0.0000 ca         1 3HJ      -0.129600
     18 C09          2.0890     0.0000     1.2120 ca         1 3HJ      -0.126000
     19 C10          1.3940     0.0000     2.4040 ca         1 3HJ      -0.111000
     20 C11          0.0110     0.0010     2.4040 ca         1 3HJ      -0.142000
     21 C12         -0.6880     0.0000     1.2030 ca         1 3HJ       0.046800
     22 N14         -2.0900     0.0010     1.2090 na         1 3HJ       0.142300
     23 C16         -4.1760    -0.0050     1.8850 cc         1 3HJ      -0.126700
     24 N17         -5.3210    -0.0120     2.7050 ns         1 3HJ      -0.462100
     25 C18         -6.5480    -0.0240     2.1490 c          1 3HJ       0.789100
     26 O19         -6.6660    -0.0290     0.9380 o          1 3HJ      -0.644100
     27 C22         -9.1690    -0.5520     1.1340 ca         1 3HJ      -0.142500
     28 C26         -9.9310     0.7400     3.0120 ca         1 3HJ      -0.142500
     29 N28         -2.9190     0.0010     0.0800 nd         1 3HJ      -0.491800
     30 N31          5.5610    -0.2830    -4.8330 nb         1 3HJ      -0.708000
     31 H1          -0.5440    -0.0000    -0.9370 ha         1 3HJ       0.189000
     32 H2          -2.5550     0.0050     3.3430 h4         1 3HJ       0.171000
     33 H3          -7.5480    -0.1260     3.9250 hn         1 3HJ       0.318500
     34 H4         -10.6240    -0.9360    -0.3870 ha         1 3HJ       0.133000
     35 H5         -12.4200     0.2860     0.7770 ha         1 3HJ       0.130000
     36 H6         -11.9790     1.3550     2.9550 ha         1 3HJ       0.133000
     37 H7          -5.0370    -0.0130    -0.1590 h4         1 3HJ       0.101100
     38 H8           2.7590     1.0390    -3.6280 ha         1 3HJ       0.172000
     39 H9           4.0470     0.8350    -5.7180 h4         1 3HJ       0.027100
     40 H10          7.7420    -1.5490    -4.8570 hc         1 3HJ       0.052367
     41 H11          8.0830    -1.1540    -3.1660 hc         1 3HJ       0.052367
     42 H12          7.2090    -2.6390    -3.5690 hc         1 3HJ       0.052367
     43 H13          5.8040    -1.2650    -1.6660 ha         1 3HJ       0.134000
     44 H14          3.9790    -0.0410    -0.4070 hn         1 3HJ       0.326500
     45 H15          3.1720    -0.0000     1.2160 ha         1 3HJ       0.127000
     46 H16          1.9330     0.0000     3.3430 ha         1 3HJ       0.140000
     47 H17         -0.5280     0.0010     3.3430 ha         1 3HJ       0.137000
     48 H18         -5.2230    -0.0100     3.7010 hn         1 3HJ       0.317500
     49 H19         -8.3810    -1.0910     0.6230 ha         1 3HJ       0.147500
     50 H20         -9.7390     1.2070     3.9710 ha         1 3HJ       0.147500
     51 C01          7.3650    -1.6020    -3.8430 c3         1 3HJ      -0.141400
@<TRIPOS>BOND
     1     7     6 ar  
     2     7    28 ar  
     3     6     5 ar  
     4    28     4 ar  
     5    10    30 ar  
     6    10     9 ar  
     7    30    11 ar  
     8     5    27 ar  
     9     9    13 ar  
    10    11    51 1   
    11    11    12 ar  
    12     4    27 ar  
    13     4     3 1   
    14    13    12 ar  
    15    13    14 1   
    16    24    23 1   
    17    24    25 1   
    18     3    25 1   
    19    14    15 1   
    20    23     8 1   
    21    23     2 2   
    22    25    26 2   
    23     8    29 2   
    24    15    16 2   
    25    15    17 1   
    26     2    22 1   
    27     1    17 ar  
    28     1    21 ar  
    29    29    22 1   
    30    22    21 1   
    31    17    18 ar  
    32    21    20 ar  
    33    18    19 ar  
    34    20    19 ar  
    35     1    31 1   
    36     2    32 1   
    37     3    33 1   
    38     5    34 1   
    39     6    35 1   
    40     7    36 1   
    41     8    37 1   
    42     9    38 1   
    43    10    39 1   
    44    51    40 1   
    45    51    41 1   
    46    51    42 1   
    47    12    43 1   
    48    14    44 1   
    49    18    45 1   
    50    19    46 1   
    51    20    47 1   
    52    24    48 1   
    53    27    49 1   
    54    28    50 1   
@<TRIPOS>SUBSTRUCTURE
     1 3HJ         1 TEMP              0 ****  ****    0 ROOT
