@<TRIPOS>MOLECULE
3HK
   58    63     1     0     0
SMALL
bcc


@<TRIPOS>ATOM
      1 N4          -1.2760     0.0270    -2.2290 n1         1 3HK      -0.060000
      2 C21         -0.7160     0.0060    -1.2390 c1         1 3HK      -0.097000
      3 C18          0.0000     0.0000     0.0000 ca         1 3HK       0.040000
      4 C17          1.3980     0.0000     0.0000 ca         1 3HK      -0.096000
      5 C16          2.0850     0.0000     1.1930 ca         1 3HK      -0.087000
      6 C19         -0.6970    -0.0010     1.2120 ca         1 3HK      -0.096000
      7 C20         -0.0070    -0.0060     2.4020 ca         1 3HK      -0.087000
      8 C15          1.3880    -0.0010     2.4010 ca         1 3HK       0.036000
      9 C14          2.1310    -0.0020     3.6850 c2         1 3HK       0.018000
     10 C12          1.7350     0.6500     4.8650 c2         1 3HK      -0.257000
     11 C11          0.6630     1.5150     5.4820 c3         1 3HK       0.034000
     12 N3           3.2710    -0.6190     3.9170 n2         1 3HK      -0.226000
     13 N2           3.6380    -0.3820     5.2470 na         1 3HK       0.325000
     14 C13          2.6800     0.4090     5.8160 c2         1 3HK      -0.170000
     15 C22          2.3080     1.0810     7.0810 ca         1 3HK       0.000000
     16 C10          1.0970     1.7490     6.9080 ca         1 3HK      -0.105000
     17 C9           0.5340     2.4560     7.9480 ca         1 3HK      -0.150000
     18 C23          2.9450     1.1220     8.3250 ca         1 3HK      -0.162000
     19 C24          2.3790     1.8350     9.3650 ca         1 3HK       0.044000
     20 O3           2.9980     1.8760    10.5750 os         1 3HK      -0.153000
     21 C25          4.2280     1.1600    10.6990 c3         1 3HK       0.024000
     22 C8           1.1720     2.5070     9.1790 ca         1 3HK       0.084000
     23 O2           0.6190     3.2070    10.2050 os         1 3HK      -0.107000
     24 C7          -0.6190     3.8720     9.9420 c3         1 3HK       0.014000
     25 C6          -1.0840     4.6010    11.2040 c3         1 3HK      -0.466000
     26 C5          -2.4090     5.3120    10.9240 DU         1 3HK       0.108000
     27 N1          -2.8550     6.0130    12.1360 n3         1 3HK      -0.046000
     28 C2          -3.1970     5.0580    13.2000 c3         1 3HK      -0.124000
     29 C1          -3.5990     5.8290    14.4600 c3         1 3HK       0.025500
     30 C3          -3.9930     6.8970    11.8440 c3         1 3HK      -0.124000
     31 C4          -4.3860     7.6510    13.1180 c3         1 3HK       0.025500
     32 O1          -4.6850     6.7070    14.1500 os         1 3HK      -0.218000
     33 H21          1.7630    -0.2260    -0.9950 ha         1 3HK       0.120500
     34 H20          3.1410    -0.0030     0.9510 ha         1 3HK       0.119000
     35 H22         -1.7140     0.1630     1.5480 ha         1 3HK       0.120500
     36 H23         -0.6250    -0.0140     3.2920 ha         1 3HK       0.119000
     37 H18          0.8790     2.4190     4.9260 hc         1 3HK       0.100000
     38 H19         -0.2370     0.9870     5.7710 hc         1 3HK       0.100000
     39 H2           4.6020    -0.5300     5.4710 hn         1 3HK       0.095000
     40 H17         -0.5150     2.7140     7.8780 ha         1 3HK       0.122000
     41 H24          3.8820     0.7300     8.7000 ha         1 3HK       0.129000
     42 H25          4.4890     1.1870    11.7510 h1         1 3HK       0.041000
     43 H27          4.4700     0.1400    10.4260 h1         1 3HK       0.041000
     44 H26          4.9760     1.8780    10.3830 h1         1 3HK       0.041000
     45 H15         -1.6050     3.5570     9.6220 h1         1 3HK       0.058000
     46 H16         -0.6740     4.8730     9.5310 h1         1 3HK       0.058000
     47 H13         -2.1500     4.5410    11.0180 DU         1 3HK       0.093000
     48 H14         -0.3940     4.3330    11.9950 hc         1 3HK       0.183000
     49 H12         -2.1200     6.0190    10.1560 ha         1 3HK       0.012000
     50 H11         -3.1010     4.8010    10.2670 ha         1 3HK       0.012000
     51 H6          -2.6450     4.2430    13.6520 h1         1 3HK       0.060000
     52 H5          -4.0410     4.5840    12.7140 h1         1 3HK       0.060000
     53 H4          -4.1590     5.1140    15.0500 h1         1 3HK       0.062250
     54 H3          -2.6690     5.6810    14.9960 h1         1 3HK       0.062250
     55 H7          -4.5460     5.9810    11.6800 h1         1 3HK       0.060000
     56 H8          -3.7690     7.4810    10.9590 h1         1 3HK       0.060000
     57 H10         -5.3370     8.0680    13.4270 h1         1 3HK       0.062250
     58 H9          -3.7250     8.4860    13.3120 h1         1 3HK       0.062250
@<TRIPOS>BOND
     1     1     2 1   
     2     2     3 1   
     3     3     4 1   
     4     3     6 1   
     5     4     5 1   
     6     4    33 1   
     7     5     8 1   
     8     5    34 1   
     9     6     7 1   
    10     6    35 1   
    11     7     8 1   
    12     7    36 1   
    13     8     9 1   
    14     9    10 1   
    15     9    12 1   
    16    10    11 1   
    17    10    14 1   
    18    11    16 1   
    19    11    37 1   
    20    11    38 1   
    21    12    13 1   
    22    13    14 1   
    23    13    39 1   
    24    14    15 1   
    25    15    16 1   
    26    15    18 1   
    27    16    17 1   
    28    17    22 1   
    29    17    40 1   
    30    18    19 1   
    31    18    41 1   
    32    19    20 1   
    33    19    22 1   
    34    20    21 1   
    35    21    42 1   
    36    21    43 1   
    37    21    44 1   
    38    22    23 1   
    39    23    24 1   
    40    24    25 1   
    41    24    45 1   
    42    24    46 1   
    43    25    26 1   
    44    25    47 1   
    45    25    48 1   
    46    26    27 1   
    47    26    47 1   
    48    26    49 1   
    49    26    50 1   
    50    27    28 1   
    51    27    30 1   
    52    28    29 1   
    53    28    51 1   
    54    28    52 1   
    55    29    32 1   
    56    29    53 1   
    57    29    54 1   
    58    30    31 1   
    59    30    55 1   
    60    30    56 1   
    61    31    32 1   
    62    31    57 1   
    63    31    58 1   
@<TRIPOS>SUBSTRUCTURE
     1 3HK         1 TEMP              0 ****  ****    0 ROOT
