@<TRIPOS>MOLECULE
3HL
   14    13     1     0     0
SMALL
bcc


@<TRIPOS>ATOM
      1 CA          0.1220   -0.1760    0.3220 c3        1 3HL     -0.232400
      2 CB          1.5510    0.0210   -0.1570 c3        1 3HL      0.169100
      3 OG1         2.4440    0.2740    0.9200 oh        1 3HL     -0.658800
      4 CG2         2.0710   -1.2140   -0.8750 c3        1 3HL     -0.092100
      5 C          -0.4880    1.1270    0.8610 c         1 3HL      0.908600
      6 OA          0.2370    1.8720    1.5890 o         1 3HL     -0.850800
      7 OB         -1.6880    1.3890    0.5700 o         1 3HL     -0.850800
      8 HA1        -0.5060   -0.5560   -0.5210 hc        1 3HL      0.032700
      9 HA2         0.1040   -0.9320    1.1460 hc        1 3HL      0.032700
     10 HB          1.5870    0.9050   -0.8580 h1        1 3HL      0.021700
     11 HOG1        2.0090    0.9380    1.4850 ho        1 3HL      0.453000
     12 HG21        1.4620   -1.4010   -1.7900 hc        1 3HL      0.021367
     13 HG22        3.1380   -1.0700   -1.1660 hc        1 3HL      0.021367
     14 HG23        2.0050   -2.1050   -0.2060 hc        1 3HL      0.021367
@<TRIPOS>BOND
     1    1    2 1   
     2    1    5 1   
     3    1    8 1   
     4    1    9 1   
     5    2    3 1   
     6    2    4 1   
     7    2   10 1   
     8    3   11 1   
     9    4   12 1   
    10    4   13 1   
    11    4   14 1   
    12    5    6 1   
    13    5    7 1   
@<TRIPOS>SUBSTRUCTURE
     1 3HL         1 TEMP              0 ****  ****    0 ROOT
