@<TRIPOS>MOLECULE
molecule
   14    13     1     0     0
SMALL
bcc


@<TRIPOS>ATOM
      1 CA           0.0000     0.0000     0.0000 c3         1 3HL      -0.173400
      2 CB           1.5260     0.0000     0.0000 c3         1 3HL       0.155100
      3 OG1          1.9890     0.0000     1.3490 oh         1 3HL      -0.594800
      4 CG2          2.1100    -1.2270    -0.6880 c3         1 3HL      -0.124100
      5 C           -0.5620     1.1890     0.7360 c          1 3HL       0.903600
      6 OA           0.0410     2.2450     0.8870 o          1 3HL      -0.857800
      7 OB          -1.7990     0.9610     1.2410 o          1 3HL      -0.857800
      8 HA1         -0.3520    -0.9070     0.4760 hc         1 3HL       0.037700
      9 HA2         -0.3520     0.0210    -1.0240 hc         1 3HL       0.037700
     10 HB           1.8830     0.8930    -0.4990 h1         1 3HL       0.029700
     11 HOG1         2.8160     0.4500     1.3980 ho         1 3HL       0.377000
     12 HG21         3.1830    -1.1100    -0.7850 hc         1 3HL       0.022033
     13 HG22         1.8950    -2.1090    -0.0980 hc         1 3HL       0.022033
     14 HG23         1.6690    -1.3330    -1.6720 hc         1 3HL       0.022033
@<TRIPOS>BOND
     1     1     2 1   
     2     1     5 1   
     3     1     8 1   
     4     1     9 1   
     5     2     3 1   
     6     2     4 1   
     7     2    10 1   
     8     3    11 1   
     9     4    12 1   
    10     4    13 1   
    11     4    14 1   
    12     5     6 1   
    13     5     7 1   
@<TRIPOS>SUBSTRUCTURE
     1 3HL         1 TEMP              0 ****  ****    0 ROOT
