@<TRIPOS>MOLECULE
3HM
   17    17     1     0     0
SMALL
bcc


@<TRIPOS>ATOM
      1 CAH        -0.0260   -0.0080    0.0340 c3        1 3HM     -0.123400
      2 CAI         1.4660   -0.0150    0.0580 ca        1 3HM      0.351600
      3 NAJ         2.1310    0.0570    1.2390 nb        1 3HM     -0.681000
      4 CAK         3.4720    0.0580    1.2110 ca        1 3HM      0.381200
      5 CAE         4.2460   -0.0130    0.0300 ca        1 3HM     -0.200900
      6 CAF         5.7650   -0.0070    0.0850 c         1 3HM      0.912200
      7 OAA         6.3130    0.0640    1.2190 o         1 3HM     -0.825800
      8 OAG         6.3890   -0.0750   -1.0110 o         1 3HM     -0.825800
      9 CAD         3.5690   -0.0870   -1.1850 ca        1 3HM     -0.154000
     10 CAC         2.1670   -0.0880   -1.1730 ca        1 3HM     -0.032200
     11 OAB         1.4140   -0.1600   -2.3290 oh        1 3HM     -0.518100
     12 HAH        -0.4660   -0.2020    1.0410 hc        1 3HM      0.035700
     13 HAHA       -0.3840    0.9870   -0.3300 hc        1 3HM      0.035700
     14 HAHB       -0.3870   -0.7910   -0.6780 hc        1 3HM      0.035700
     15 HAK         3.9940    0.1170    2.1860 h4        1 3HM      0.040100
     16 HAD         4.1460   -0.1440   -2.1200 ha        1 3HM      0.157000
     17 HOAB        2.0380   -0.2240   -3.0660 ho        1 3HM      0.409000
@<TRIPOS>BOND
     1    1    2 1   
     2    1   12 1   
     3    1   13 1   
     4    1   14 1   
     5    2    3 ar  
     6    2   10 ar  
     7    3    4 ar  
     8    4    5 ar  
     9    4   15 1   
    10    5    6 1   
    11    5    9 ar  
    12    6    7 1   
    13    6    8 1   
    14    9   10 ar  
    15    9   16 1   
    16   10   11 1   
    17   11   17 1   
@<TRIPOS>SUBSTRUCTURE
     1 3HM         1 TEMP              0 ****  ****    0 ROOT
