@<TRIPOS>MOLECULE
molecule
   17    17     1     0     0
SMALL
bcc


@<TRIPOS>ATOM
      1 CAH          0.0000     0.0000     0.0000 c3         1 3HM      -0.124400
      2 CAI          1.5070     0.0000     0.0000 ca         1 3HM       0.378600
      3 NAJ          2.1560     0.0000     1.1470 nb         1 3HM      -0.711000
      4 CAK          3.4720    -0.0000     1.2030 ca         1 3HM       0.423200
      5 CAE          4.2340    -0.0010     0.0330 ca         1 3HM      -0.204900
      6 CAF          5.7110    -0.0020     0.1000 c          1 3HM       0.884200
      7 OAA          6.3310    -0.0020     1.2950 o          1 3HM      -0.832300
      8 OAG          6.3650    -0.0030    -0.9230 o          1 3HM      -0.832300
      9 CAD          3.5780    -0.0020    -1.2030 ca         1 3HM      -0.131000
     10 CAC          2.1900    -0.0070    -1.2100 ca         1 3HM      -0.043200
     11 OAB          1.5080    -0.0130    -2.3850 oh         1 3HM      -0.526100
     12 HAH         -0.3610     0.0590     1.0200 hc         1 3HM       0.036700
     13 HAHA        -0.3610     0.8540    -0.5610 hc         1 3HM       0.036700
     14 HAHB        -0.3610    -0.9120    -0.4590 hc         1 3HM       0.036700
     15 HAK          3.9670    -0.0000     2.1660 h4         1 3HM       0.049100
     16 HAD          4.1380    -0.0050    -2.1300 ha         1 3HM       0.155000
     17 HOAB         1.8170    -0.7220    -2.9240 ho         1 3HM       0.406000
@<TRIPOS>BOND
     1     1     2 1   
     2     1    12 1   
     3     1    13 1   
     4     1    14 1   
     5     3     2 ar  
     6     2    10 ar  
     7     3     4 ar  
     8     4     5 ar  
     9     4    15 1   
    10     5     9 ar  
    11     5     6 1   
    12     8     6 1   
    13     6     7 1   
    14    10     9 ar  
    15     9    16 1   
    16    10    11 1   
    17    11    17 1   
@<TRIPOS>SUBSTRUCTURE
     1 3HM         1 TEMP              0 ****  ****    0 ROOT
