@<TRIPOS>MOLECULE
3HN
   51    56     1     0     0
SMALL
bcc


@<TRIPOS>ATOM
      1 C10          0.0000     0.0000     0.0000 ca         1 3HN      -0.089000
      2 C02          7.6600     0.0250     1.3560 c2         1 3HN       0.012000
      3 C03          6.4330     0.4590     0.8810 c2         1 3HN      -0.286000
      4 C04          5.3540    -0.3590     0.9460 DU         1 3HN       0.076000
      5 N05          4.2330     0.0010     0.0470 nu         1 3HN      -0.030000
      6 C06          3.5560     0.0000     1.2120 cx         1 3HN       0.317000
      7 O07          4.1620     0.0000     2.2670 op         1 3HN      -0.302000
      8 C08          2.0780     0.0000     1.2090 ca         1 3HN      -0.147000
      9 C09          1.3800     0.0000     0.0000 ca         1 3HN      -0.074000
     10 C11         -0.6960     0.0060     1.1950 ca         1 3HN      -0.103000
     11 C12         -0.0100     0.0060     2.4030 ca         1 3HN      -0.096000
     12 C13          1.3750     0.0000     2.4150 ca         1 3HN      -0.028000
     13 N14         -0.7210     0.0110     3.6120 na         1 3HN       0.381000
     14 C15         -2.0730    -0.0780     3.7470 c2         1 3HN      -0.293000
     15 C16         -2.3540    -0.0370     5.0740 c2         1 3HN      -0.213000
     16 N17         -3.6370    -0.0960     5.6520 ns         1 3HN       0.147000
     17 C18         -3.7760    -0.0380     6.9920 c2         1 3HN       0.179000
     18 O19         -2.7940     0.0660     7.7010 o          1 3HN      -0.449000
     19 N20         -5.0040    -0.0940     7.5450 ns         1 3HN       0.095000
     20 C21         -5.1580     0.0750     8.9260 ca         1 3HN      -0.081000
     21 C22         -4.3210     0.9400     9.6180 ca         1 3HN      -0.091000
     22 C23         -4.4750     1.1060    10.9810 ca         1 3HN      -0.114000
     23 C24         -5.4630     0.4100    11.6560 ca         1 3HN       0.056000
     24 F25         -5.6120     0.5740    12.9890 f          1 3HN      -0.095000
     25 C26         -6.2990    -0.4540    10.9680 ca         1 3HN      -0.114000
     26 C27         -6.1520    -0.6180     9.6050 ca         1 3HN      -0.091000
     27 C28         -1.1400     0.0820     5.7680 c2         1 3HN      -0.059000
     28 N29         -0.1670     0.1050     4.8940 n2         1 3HN      -0.209000
     29 C30          5.4790    -1.6010     1.4760 c2         1 3HN      -0.246000
     30 C31          6.7080    -2.0310     1.9490 c2         1 3HN      -0.005000
     31 N32          7.7820    -1.2130     1.8840 n2         1 3HN      -0.121000
     32 H1          -0.5420     0.0000    -0.9380 ha         1 3HN       0.110000
     33 H2           9.7440     0.4330     1.6760 hc         1 3HN       0.050333
     34 H3           8.7020     1.8590     1.7610 hc         1 3HN       0.050333
     35 H4           9.0840     1.1360     0.1930 hc         1 3HN       0.050333
     36 H5           6.3410     1.4420     0.4350 ha         1 3HN       0.117000
     37 H6           4.4200     0.3510    -0.8720 hn         1 3HN       0.167000
     38 H7           1.9210    -0.0050    -0.9380 ha         1 3HN       0.105000
     39 H8          -1.7790     0.0060     1.1910 ha         1 3HN       0.113000
     40 H9           1.9120     0.0530     3.3540 ha         1 3HN       0.157000
     41 H10         -2.7870    -0.2000     2.9410 h4         1 3HN       0.151000
     42 H11         -4.4470    -0.1400     5.0660 hn         1 3HN       0.067000
     43 H12         -5.8120    -0.1790     6.9610 hn         1 3HN       0.074000
     44 H13         -3.5480     1.4850     9.0900 ha         1 3HN       0.125500
     45 H14         -3.8230     1.7810    11.5210 ha         1 3HN       0.119500
     46 H15         -7.0710    -0.9970    11.4990 ha         1 3HN       0.119500
     47 H16         -6.8080    -1.2900     9.0660 ha         1 3HN       0.125500
     48 H17         -1.0240     0.1400     6.8430 h4         1 3HN       0.199000
     49 H18          4.6180    -2.2570     1.5280 ha         1 3HN       0.120000
     50 H19          6.8080    -3.0230     2.3730 h4         1 3HN       0.114000
     51 C01          8.8870     0.9290     1.2380 c3         1 3HN      -0.059000
@<TRIPOS>BOND
     1     1     9 1   
     2     1    10 1   
     3     1    32 1   
     4     2     3 1   
     5     2    31 1   
     6     2    51 1   
     7     3     4 1   
     8     3    36 1   
     9     4     5 1   
    10     4     6 1   
    11     4     7 1   
    12     4    29 1   
    13     5     6 1   
    14     5    37 1   
    15     6     7 1   
    16     6     8 1   
    17     8     9 1   
    18     8    12 1   
    19     9    38 1   
    20    10    11 1   
    21    10    39 1   
    22    11    12 1   
    23    11    13 1   
    24    12    40 1   
    25    13    14 1   
    26    13    28 1   
    27    14    15 1   
    28    14    41 1   
    29    15    16 1   
    30    15    27 1   
    31    16    17 1   
    32    16    42 1   
    33    17    18 1   
    34    17    19 1   
    35    19    20 1   
    36    19    43 1   
    37    20    21 1   
    38    20    26 1   
    39    21    22 1   
    40    21    44 1   
    41    22    23 1   
    42    22    45 1   
    43    23    24 1   
    44    23    25 1   
    45    25    26 1   
    46    25    46 1   
    47    26    47 1   
    48    27    28 1   
    49    27    48 1   
    50    29    30 1   
    51    29    49 1   
    52    30    31 1   
    53    30    50 1   
    54    33    51 1   
    55    34    51 1   
    56    35    51 1   
@<TRIPOS>SUBSTRUCTURE
     1 3HN         1 TEMP              0 ****  ****    0 ROOT
