@<TRIPOS>MOLECULE
molecule
   51    54     1     0     0
SMALL
bcc


@<TRIPOS>ATOM
      1 C10          0.0000     0.0000     0.0000 ca         1 3HN      -0.117000
      2 C02          7.6600     0.0250     1.3560 ca         1 3HN       0.457600
      3 C03          6.4330     0.4590     0.8810 ca         1 3HN      -0.352300
      4 C04          5.3540    -0.3590     0.9460 ca         1 3HN       0.146600
      5 N05          4.2330     0.0010     0.0470 ns         1 3HN      -0.538100
      6 C06          3.5560     0.0000     1.2120 c          1 3HN       0.703700
      7 O07          4.1620     0.0000     2.2670 o          1 3HN      -0.515100
      8 C08          2.0780     0.0000     1.2090 ca         1 3HN      -0.142600
      9 C09          1.3800     0.0000     0.0000 ca         1 3HN      -0.105000
     10 C11         -0.6960     0.0060     1.1950 ca         1 3HN      -0.137000
     11 C12         -0.0100     0.0060     2.4030 ca         1 3HN       0.041800
     12 C13          1.3750     0.0000     2.4150 ca         1 3HN      -0.073000
     13 N14         -0.7210     0.0110     3.6120 na         1 3HN       0.142300
     14 C15         -2.0730    -0.0780     3.7470 cc         1 3HN      -0.162300
     15 C16         -2.3540    -0.0370     5.0740 cc         1 3HN      -0.127700
     16 N17         -3.6370    -0.0960     5.6520 ns         1 3HN      -0.462100
     17 C18         -3.7760    -0.0380     6.9920 c          1 3HN       0.789100
     18 O19         -2.7940     0.0660     7.7010 o          1 3HN      -0.641100
     19 N20         -5.0040    -0.0940     7.5450 ns         1 3HN      -0.488100
     20 C21         -5.1580     0.0750     8.9260 ca         1 3HN       0.054600
     21 C22         -4.3210     0.9400     9.6180 ca         1 3HN      -0.118000
     22 C23         -4.4750     1.1060    10.9810 ca         1 3HN      -0.150000
     23 C24         -5.4630     0.4100    11.6560 ca         1 3HN       0.117900
     24 F25         -5.6120     0.5740    12.9890 f          1 3HN      -0.141900
     25 C26         -6.2990    -0.4540    10.9680 ca         1 3HN      -0.150000
     26 C27         -6.1520    -0.6180     9.6050 ca         1 3HN      -0.118000
     27 C28         -1.1400     0.0820     5.7680 cc         1 3HN       0.354200
     28 N29         -0.1670     0.1050     4.8940 nd         1 3HN      -0.491800
     29 C30          5.4790    -1.6010     1.4760 ca         1 3HN      -0.314300
     30 C31          6.7080    -2.0310     1.9490 ca         1 3HN       0.448200
     31 N32          7.7820    -1.2130     1.8840 nb         1 3HN      -0.724000
     32 H1          -0.5420     0.0000    -0.9380 ha         1 3HN       0.141000
     33 H2           9.7440     0.4330     1.6760 hc         1 3HN       0.050033
     34 H3           8.7020     1.8590     1.7610 hc         1 3HN       0.050033
     35 H4           9.0840     1.1360     0.1930 hc         1 3HN       0.050033
     36 H5           6.3410     1.4420     0.4350 ha         1 3HN       0.131000
     37 H6           4.4200     0.3510    -0.8720 hn         1 3HN       0.396500
     38 H7           1.9210    -0.0050    -0.9380 ha         1 3HN       0.137000
     39 H8          -1.7790     0.0060     1.1910 ha         1 3HN       0.137000
     40 H9           1.9120     0.0530     3.3540 ha         1 3HN       0.185000
     41 H10         -2.7870    -0.2000     2.9410 h4         1 3HN       0.171000
     42 H11         -4.4470    -0.1400     5.0660 hn         1 3HN       0.318500
     43 H12         -5.8120    -0.1790     6.9610 hn         1 3HN       0.319500
     44 H13         -3.5480     1.4850     9.0900 ha         1 3HN       0.152000
     45 H14         -3.8230     1.7810    11.5210 ha         1 3HN       0.149000
     46 H15         -7.0710    -0.9970    11.4990 ha         1 3HN       0.149000
     47 H16         -6.8080    -1.2900     9.0660 ha         1 3HN       0.152000
     48 H17         -1.0240     0.1400     6.8430 h4         1 3HN       0.100100
     49 H18          4.6180    -2.2570     1.5280 ha         1 3HN       0.138000
     50 H19          6.8080    -3.0230     2.3730 h4         1 3HN       0.024100
     51 C01          8.8870     0.9290     1.2380 c3         1 3HN      -0.136400
@<TRIPOS>BOND
     1    24    23 1
     2    25    23 ar
     3    25    26 ar
     4    23    22 ar
     5    30    31 ar
     6    30    29 ar
     7    26    20 ar
     8    31     2 ar
     9    22    21 ar
    10    29     4 ar
    11     2    51 1
    12     2     3 ar
    13    20    21 ar
    14    20    19 1
    15     4     3 ar
    16     4     5 1
    17    19    17 1
    18     5     6 1
    19    16    17 1
    20    16    15 1
    21    17    18 2
    22    15    27 1
    23    15    14 2
    24    27    28 2
    25     6     7 2
    26     6     8 1
    27    14    13 1
    28    12     8 ar
    29    12    11 ar
    30    28    13 1
    31    13    11 1
    32     8     9 ar
    33    11    10 ar
    34     9     1 ar
    35    10     1 ar
    36     1    32 1
    37    51    33 1
    38    51    34 1
    39    51    35 1
    40     3    36 1
    41     5    37 1
    42     9    38 1
    43    10    39 1
    44    12    40 1
    45    14    41 1
    46    16    42 1
    47    19    43 1
    48    21    44 1
    49    22    45 1
    50    25    46 1
    51    26    47 1
    52    27    48 1
    53    29    49 1
    54    30    50 1
@<TRIPOS>SUBSTRUCTURE
     1 3HN         1 TEMP              0 ****  ****    0 ROOT
