@<TRIPOS>MOLECULE
molecule
   26    25     1     0     0
SMALL
bcc


@<TRIPOS>ATOM
      1 O1           0.0000     0.0000     0.0000 o          1 3HO      -0.859300
      2 C1           1.2080     0.0000     0.0000 c          1 3HO       0.898600
      3 O2           1.8790     0.0000     1.1640 o          1 3HO      -0.859300
      4 C2           1.9630    -0.0080    -1.3040 c3         1 3HO      -0.193400
      5 C3           0.9690    -0.0140    -2.4680 c3         1 3HO       0.165100
      6 O3           0.2270     1.2070    -2.4670 oh         1 3HO      -0.608800
      7 C4           1.7310    -0.1480    -3.7880 c3         1 3HO      -0.100400
      8 C5           0.7330    -0.2790    -4.9410 c3         1 3HO      -0.082400
      9 C6           1.4950    -0.4130    -6.2610 c3         1 3HO      -0.082400
     10 C7           0.4980    -0.5440    -7.4140 c3         1 3HO      -0.085400
     11 C8           1.2590    -0.6790    -8.7350 c3         1 3HO      -0.092100
     12 H2           2.5850    -0.8930    -1.3550 hc         1 3HO       0.037200
     13 H2A          2.5860     0.8760    -1.3660 hc         1 3HO       0.037200
     14 H3           0.2890    -0.8500    -2.3570 h1         1 3HO       0.036700
     15 HO3         -0.6920     1.0170    -2.3760 ho         1 3HO       0.401000
     16 H4           2.3460     0.7310    -3.9410 hc         1 3HO       0.039200
     17 H4A          2.3610    -1.0280    -3.7540 hc         1 3HO       0.039200
     18 H5           0.1030     0.6010    -4.9750 hc         1 3HO       0.040200
     19 H5A          0.1180    -1.1580    -4.7880 hc         1 3HO       0.040200
     20 H6           2.1100     0.4660    -6.4130 hc         1 3HO       0.036700
     21 H6A          2.1250    -1.2930    -6.2260 hc         1 3HO       0.036700
     22 H7          -0.1320     0.3360    -7.4490 hc         1 3HO       0.037700
     23 H7A         -0.1180    -1.4230    -7.2610 hc         1 3HO       0.037700
     24 H8           0.5530    -0.7710    -9.5510 hc         1 3HO       0.026700
     25 H8A          1.8890    -1.5600    -8.7000 hc         1 3HO       0.026700
     26 H8B          1.8750     0.1990    -8.8880 hc         1 3HO       0.026700
@<TRIPOS>BOND
     1     1     2 1   
     2     4     2 1   
     3     2     3 1   
     4     4     5 1   
     5     4    12 1   
     6     4    13 1   
     7     6     5 1   
     8     7     5 1   
     9     5    14 1   
    10     6    15 1   
    11     7     8 1   
    12     7    16 1   
    13     7    17 1   
    14     9     8 1   
    15     8    18 1   
    16     8    19 1   
    17     9    10 1   
    18     9    20 1   
    19     9    21 1   
    20    11    10 1   
    21    10    22 1   
    22    10    23 1   
    23    11    24 1   
    24    11    25 1   
    25    11    26 1   
@<TRIPOS>SUBSTRUCTURE
     1 3HO         1 TEMP              0 ****  ****    0 ROOT
