@<TRIPOS>MOLECULE
3HO
   26    25     1     0     0
SMALL
bcc


@<TRIPOS>ATOM
      1 O1          0.0310    0.5810    0.1680 o         1 3HO     -0.849300
      2 C1          1.1380   -0.0250    0.0300 c         1 3HO      0.908600
      3 O2          1.6800   -0.7070    0.9430 o         1 3HO     -0.849300
      4 C2          1.8700    0.0950   -1.3160 c3        1 3HO     -0.233400
      5 C3          0.9110    0.0050   -2.4930 c3        1 3HO      0.172100
      6 O3          0.0640    1.1440   -2.5740 oh        1 3HO     -0.658800
      7 C4          1.6760   -0.0780   -3.8150 c3        1 3HO     -0.079400
      8 C5          0.7480   -0.3680   -4.9740 c3        1 3HO     -0.077400
      9 C6          1.4950   -0.3910   -6.2900 c3        1 3HO     -0.077400
     10 C7          0.5660   -0.6910   -7.4480 c3        1 3HO     -0.081400
     11 C8          1.3030   -0.7110   -8.7620 c3        1 3HO     -0.090100
     12 H2          2.6350   -0.7160   -1.3890 hc        1 3HO      0.033700
     13 H2A         2.3960    1.0820   -1.3360 hc        1 3HO      0.033700
     14 H3          0.2630   -0.9100   -2.3760 h1        1 3HO      0.024700
     15 HO3        -0.2670    1.3020   -1.6710 ho        1 3HO      0.454000
     16 H4          2.4490   -0.8840   -3.7320 hc        1 3HO      0.033200
     17 H4A         2.2060    0.8930   -3.9900 hc        1 3HO      0.033200
     18 H5         -0.0550    0.4150   -5.0000 hc        1 3HO      0.044700
     19 H5A         0.2420   -1.3560   -4.8110 hc        1 3HO      0.044700
     20 H6          2.3070   -1.1640   -6.2500 hc        1 3HO      0.032200
     21 H6A         1.9920    0.6010   -6.4560 hc        1 3HO      0.032200
     22 H7          0.0700   -1.6830   -7.2790 hc        1 3HO      0.037200
     23 H7A        -0.2460    0.0820   -7.4820 hc        1 3HO      0.037200
     24 H8          1.7840    0.2780   -8.9580 hc        1 3HO      0.024700
     25 H8A         2.1020   -1.4910   -8.7540 hc        1 3HO      0.024700
     26 H8B         0.6000   -0.9330   -9.6010 hc        1 3HO      0.024700
@<TRIPOS>BOND
     1    1    2 1   
     2    2    3 1   
     3    2    4 1   
     4    4    5 1   
     5    4   12 1   
     6    4   13 1   
     7    5    6 1   
     8    5    7 1   
     9    5   14 1   
    10    6   15 1   
    11    7    8 1   
    12    7   16 1   
    13    7   17 1   
    14    8    9 1   
    15    8   18 1   
    16    8   19 1   
    17    9   10 1   
    18    9   20 1   
    19    9   21 1   
    20   10   11 1   
    21   10   22 1   
    22   10   23 1   
    23   11   24 1   
    24   11   25 1   
    25   11   26 1   
@<TRIPOS>SUBSTRUCTURE
     1 3HO         1 TEMP              0 ****  ****    0 ROOT
