@<TRIPOS>MOLECULE
3HP
   18    18     1     0     0
SMALL
bcc


@<TRIPOS>ATOM
      1 C8         -0.1430    0.6570   -0.0500 c         1 3HP      0.918600
      2 O1          0.2340    1.8640   -0.0890 o         1 3HP     -0.841800
      3 O2         -0.1150   -0.0610    0.9860 o         1 3HP     -0.841800
      4 C7         -0.7250    0.0260   -1.3370 c3        1 3HP     -0.177100
      5 C1          0.2470   -0.0800   -2.4500 ca        1 3HP      0.017700
      6 C2          1.1000    0.9910   -2.7450 ca        1 3HP     -0.201000
      7 C3          1.9940    0.8890   -3.8170 ca        1 3HP      0.106100
      8 C4          2.0520   -0.2630   -4.6140 ca        1 3HP     -0.193000
      9 C5          1.2020   -1.3240   -4.3070 ca        1 3HP     -0.118000
     10 C6          0.3120   -1.2390   -3.2400 ca        1 3HP     -0.185000
     11 O3          2.8550    1.9190   -4.1480 oh        1 3HP     -0.527100
     12 H71        -1.1380   -0.9830   -1.0830 hc        1 3HP      0.040200
     13 H72        -1.5750    0.6800   -1.6670 hc        1 3HP      0.040200
     14 H2          1.0680    1.8840   -2.0930 ha        1 3HP      0.193000
     15 H4          2.7580   -0.3170   -5.4510 ha        1 3HP      0.124000
     16 H5          1.2410   -2.2380   -4.9160 ha        1 3HP      0.107000
     17 H6         -0.3430   -2.0900   -3.0050 ha        1 3HP      0.120000
     18 HO3         2.7640    2.5970   -3.4630 ho        1 3HP      0.418000
@<TRIPOS>BOND
     1    1    2 1   
     2    1    3 1   
     3    1    4 1   
     4    4    5 1   
     5    4   12 1   
     6    4   13 1   
     7    5    6 ar  
     8    5   10 ar  
     9    6    7 ar  
    10    6   14 1   
    11    7    8 ar  
    12    7   11 1   
    13    8    9 ar  
    14    8   15 1   
    15    9   10 ar  
    16    9   16 1   
    17   10   17 1   
    18   11   18 1   
@<TRIPOS>SUBSTRUCTURE
     1 3HP         1 TEMP              0 ****  ****    0 ROOT
