@<TRIPOS>MOLECULE
molecule
   18    18     1     0     0
SMALL
bcc


@<TRIPOS>ATOM
      1 C8           0.0000     0.0000     0.0000 c          1 3HP       0.893600
      2 O1           1.2090     0.0000     0.0000 o          1 3HP      -0.844300
      3 O2          -0.6700     0.0000     1.1620 o          1 3HP      -0.844300
      4 C7          -0.7520     0.0030    -1.3050 c3         1 3HP      -0.155100
      5 C1           0.2270     0.0030    -2.4490 ca         1 3HP       0.007700
      6 C2           0.6710     1.1990    -2.9760 ca         1 3HP      -0.145000
      7 C3           1.5770     1.1980    -4.0280 ca         1 3HP       0.089100
      8 C4           2.0250    -0.0040    -4.5530 ca         1 3HP      -0.184000
      9 C5           1.5730    -1.1980    -4.0260 ca         1 3HP      -0.127000
     10 C6           0.6750    -1.1950    -2.9750 ca         1 3HP      -0.129000
     11 O3           2.0190     2.3740    -4.5450 oh         1 3HP      -0.541100
     12 H71         -1.3760    -0.8810    -1.3640 hc         1 3HP       0.041200
     13 H72         -1.3740     0.8880    -1.3610 hc         1 3HP       0.041200
     14 H2           0.3190     2.1370    -2.5640 ha         1 3HP       0.137000
     15 H4           2.7300    -0.0070    -5.3760 ha         1 3HP       0.114000
     16 H5           1.9220    -2.1380    -4.4370 ha         1 3HP       0.109000
     17 H6           0.3210    -2.1320    -2.5630 ha         1 3HP       0.128000
     18 HO3          2.7710     2.6680    -4.0590 ho         1 3HP       0.410000
@<TRIPOS>BOND
     1     1     2 1   
     2     1     3 1   
     3     1     4 1   
     4     4     5 1   
     5     4    12 1   
     6     4    13 1   
     7     5     6 ar  
     8     5    10 ar  
     9     6     7 ar  
    10     6    14 1   
    11     7     8 ar  
    12     7    11 1   
    13     8     9 ar  
    14     8    15 1   
    15     9    10 ar  
    16     9    16 1   
    17    10    17 1   
    18    11    18 1   
@<TRIPOS>SUBSTRUCTURE
     1 3HP         1 TEMP              0 ****  ****    0 ROOT
