@<TRIPOS>MOLECULE
molecule
   54    57     1     0     0
SMALL
bcc


@<TRIPOS>ATOM
      1 C01          0.0000     0.0000     0.0000 c3         1 3HQ      -0.045800
      2 C02          1.5070     0.0000     0.0000 ca         1 3HQ      -0.097300
      3 C03          2.1970     0.0000     1.1970 ca         1 3HQ      -0.111000
      4 C04          3.5780     0.0000     1.2010 ca         1 3HQ      -0.139500
      5 C05          4.2730     0.0020    -0.0000 ca         1 3HQ       0.063600
      6 N06          5.6730     0.0010    -0.0020 ns         1 3HQ      -0.489100
      7 C07          6.3470    -0.6530     0.9660 c          1 3HQ       0.789100
      8 O08          5.7430    -1.3210     1.7820 o          1 3HQ      -0.641100
      9 N09          7.6900    -0.5670     1.0250 ns         1 3HQ      -0.463100
     10 C10          8.3950    -1.2510     2.0350 cc         1 3HQ      -0.125700
     11 C11          7.8300    -2.0530     3.0370 cc         1 3HQ       0.354200
     12 N12          8.7970    -2.5180     3.7880 nd         1 3HQ      -0.491800
     13 N13         10.0130    -2.0300     3.2930 na         1 3HQ       0.142300
     14 C14          9.7410    -1.2540     2.2080 cd         1 3HQ      -0.164300
     15 C15         11.2850    -2.2970     3.8190 ca         1 3HQ       0.046800
     16 C16         12.4020    -1.6620     3.2910 ca         1 3HQ      -0.141000
     17 C17         13.6580    -1.9230     3.8070 ca         1 3HQ      -0.112000
     18 C18         13.8110    -2.8130     4.8480 ca         1 3HQ      -0.124000
     19 C19         12.6950    -3.4570     5.3860 ca         1 3HQ      -0.130600
     20 C20         11.4270    -3.1900     4.8690 ca         1 3HQ      -0.071000
     21 C21         12.8550    -4.4130     6.5020 c          1 3HQ       0.676700
     22 O22         11.8820    -4.9720     6.9680 o          1 3HQ      -0.575100
     23 N23         14.0810    -4.6650     7.0020 ns         1 3HQ      -0.472100
     24 C24         14.2460    -5.6440     7.9810 ca         1 3HQ       0.095600
     25 C25         13.4310    -6.7750     8.0080 ca         1 3HQ      -0.262300
     26 C26         13.6320    -7.7220     8.9900 ca         1 3HQ       0.441200
     27 N27         14.5780    -7.5690     9.8970 nb         1 3HQ      -0.709000
     28 C28         15.3690    -6.5110     9.9050 ca         1 3HQ       0.445600
     29 C29         16.4340    -6.3890    10.9650 c3         1 3HQ      -0.141400
     30 C30         15.2350    -5.5190     8.9570 ca         1 3HQ      -0.295300
     31 C31          3.5780     0.0020    -1.2020 ca         1 3HQ      -0.139500
     32 C32          2.1960    -0.0040    -1.1990 ca         1 3HQ      -0.111000
     33 H1          -0.3610     0.2520    -0.9900 hc         1 3HQ       0.042700
     34 H2          -0.3610     0.7310     0.7130 hc         1 3HQ       0.042700
     35 H3          -0.3610    -0.9830     0.2760 hc         1 3HQ       0.042700
     36 H4           1.6540    -0.0010     2.1350 ha         1 3HQ       0.134000
     37 H5           4.1180     0.0000     2.1400 ha         1 3HQ       0.144500
     38 H6           6.1730     0.5100    -0.7030 hn         1 3HQ       0.317500
     39 H7           8.1890    -0.0340     0.3400 hn         1 3HQ       0.317500
     40 H8           6.7740    -2.2540     3.1680 h4         1 3HQ       0.101100
     41 H9          10.4660    -0.7300     1.5970 h4         1 3HQ       0.171000
     42 H10         12.2890    -0.9610     2.4730 ha         1 3HQ       0.138000
     43 H11         14.5260    -1.4250     3.3910 ha         1 3HQ       0.140000
     44 H12         14.7980    -3.0160     5.2470 ha         1 3HQ       0.128000
     45 H13         10.5560    -3.6860     5.2820 ha         1 3HQ       0.188000
     46 H14         14.8520    -4.0790     6.7490 hn         1 3HQ       0.327500
     47 H15         12.6520    -6.9080     7.2670 ha         1 3HQ       0.168000
     48 H16         13.0030    -8.6040     9.0180 h4         1 3HQ       0.027100
     49 H17         16.3340    -7.2020    11.6740 hc         1 3HQ       0.052367
     50 H18         16.3230    -5.4430    11.4820 hc         1 3HQ       0.052367
     51 H19         17.4120    -6.4340    10.5010 hc         1 3HQ       0.052367
     52 H20         15.8870    -4.6540     8.9710 ha         1 3HQ       0.135000
     53 H21          4.1180     0.0010    -2.1420 ha         1 3HQ       0.144500
     54 H22          1.6520    -0.0030    -2.1360 ha         1 3HQ       0.134000
@<TRIPOS>BOND
     1     1     2 1
     2     3     2 ar
     3     3     4 ar
     4     2    32 ar
     5    26    27 ar
     6    26    25 ar
     7    27    28 ar
     8     4     5 ar
     9    25    24 ar
    10    28    29 1
    11    28    30 ar
    12    32    31 ar
    13     5    31 ar
    14     5     6 1
    15    24    30 ar
    16    24    23 1
    17    23    21 1
    18     6     7 1
    19     9     7 1
    20     9    10 1
    21     7     8 2
    22    10    11 1
    23    10    14 2
    24    22    21 2
    25    21    19 1
    26    11    12 2
    27    14    13 1
    28    20    19 ar
    29    20    15 ar
    30    12    13 1
    31    13    15 1
    32    19    18 ar
    33    15    16 ar
    34    18    17 ar
    35    16    17 ar
    36     1    33 1
    37     1    34 1
    38     1    35 1
    39     3    36 1
    40     4    37 1
    41     6    38 1
    42     9    39 1
    43    11    40 1
    44    14    41 1
    45    16    42 1
    46    17    43 1
    47    18    44 1
    48    20    45 1
    49    23    46 1
    50    25    47 1
    51    26    48 1
    52    29    49 1
    53    29    50 1
    54    29    51 1
    55    30    52 1
    56    31    53 1
    57    32    54 1
@<TRIPOS>SUBSTRUCTURE
     1 3HQ         1 TEMP              0 ****  ****    0 ROOT
