@<TRIPOS>MOLECULE
3HQ
   54    57     1     0     0
SMALL
bcc


@<TRIPOS>ATOM
      1 C01          0.0000     0.0000     0.0000 c3         1 3HQ       0.066200
      2 C02          1.5070     0.0000     0.0000 ca         1 3HQ      -0.102300
      3 C03          2.1970     0.0000     1.1970 ca         1 3HQ      -0.084000
      4 C04          3.5780     0.0000     1.2010 ca         1 3HQ      -0.113000
      5 C05          4.2730     0.0020    -0.0000 ca         1 3HQ      -0.083400
      6 N06          5.6730     0.0010    -0.0020 ns         1 3HQ      -0.051100
      7 C07          6.3470    -0.6530     0.9660 c          1 3HQ       0.551100
      8 O08          5.7430    -1.3210     1.7820 o          1 3HQ      -0.688100
      9 N09          7.6900    -0.5670     1.0250 ns         1 3HQ      -0.002100
     10 C10          8.3950    -1.2510     2.0350 cc         1 3HQ      -0.283700
     11 C11          7.8300    -2.0530     3.0370 cc         1 3HQ       0.405200
     12 N12          8.7970    -2.5180     3.7880 nd         1 3HQ      -0.642800
     13 N13         10.0130    -2.0300     3.2930 na         1 3HQ       0.620300
     14 C14          9.7410    -1.2540     2.2080 cd         1 3HQ      -0.319300
     15 C15         11.2850    -2.2970     3.8190 ca         1 3HQ      -0.138200
     16 C16         12.4020    -1.6620     3.2910 ca         1 3HQ      -0.108000
     17 C17         13.6580    -1.9230     3.8070 ca         1 3HQ      -0.085000
     18 C18         13.8110    -2.8130     4.8480 ca         1 3HQ      -0.095000
     19 C19         12.6950    -3.4570     5.3860 ca         1 3HQ      -0.143600
     20 C20         11.4270    -3.1900     4.8690 ca         1 3HQ      -0.027000
     21 C21         12.8550    -4.4130     6.5020 c          1 3HQ       0.584700
     22 O22         11.8820    -4.9720     6.9680 o          1 3HQ      -0.616100
     23 N23         14.0810    -4.6650     7.0020 ns         1 3HQ      -0.032100
     24 C24         14.2460    -5.6440     7.9810 ca         1 3HQ      -0.053400
     25 C25         13.4310    -6.7750     8.0080 ca         1 3HQ      -0.234300
     26 C26         13.6320    -7.7220     8.9900 ca         1 3HQ       0.429200
     27 N27         14.5780    -7.5690     9.8970 nb         1 3HQ      -0.595000
     28 C28         15.3690    -6.5110     9.9050 ca         1 3HQ       0.397600
     29 C29         16.4340    -6.3890    10.9650 c3         1 3HQ      -0.041400
     30 C30         15.2350    -5.5190     8.9570 ca         1 3HQ      -0.263300
     31 C31          3.5780     0.0020    -1.2020 ca         1 3HQ      -0.113000
     32 C32          2.1960    -0.0040    -1.1990 ca         1 3HQ      -0.084000
     33 H1          -0.3610     0.2520    -0.9900 hc         1 3HQ       0.006700
     34 H2          -0.3610     0.7310     0.7130 hc         1 3HQ       0.006700
     35 H3          -0.3610    -0.9830     0.2760 hc         1 3HQ       0.006700
     36 H4           1.6540    -0.0010     2.1350 ha         1 3HQ       0.106000
     37 H5           4.1180     0.0000     2.1400 ha         1 3HQ       0.121000
     38 H6           6.1730     0.5100    -0.7030 hn         1 3HQ       0.158500
     39 H7           8.1890    -0.0340     0.3400 hn         1 3HQ       0.153500
     40 H8           6.7740    -2.2540     3.1680 h4         1 3HQ       0.062100
     41 H9          10.4660    -0.7300     1.5970 h4         1 3HQ       0.150000
     42 H10         12.2890    -0.9610     2.4730 ha         1 3HQ       0.113000
     43 H11         14.5260    -1.4250     3.3910 ha         1 3HQ       0.108000
     44 H12         14.7980    -3.0160     5.2470 ha         1 3HQ       0.103000
     45 H13         10.5560    -3.6860     5.2820 ha         1 3HQ       0.160000
     46 H14         14.8520    -4.0790     6.7490 hn         1 3HQ       0.174500
     47 H15         12.6520    -6.9080     7.2670 ha         1 3HQ       0.150000
     48 H16         13.0030    -8.6040     9.0180 h4         1 3HQ      -0.018900
     49 H17         16.3340    -7.2020    11.6740 hc         1 3HQ       0.013367
     50 H18         16.3230    -5.4430    11.4820 hc         1 3HQ       0.013367
     51 H19         17.4120    -6.4340    10.5010 hc         1 3HQ       0.013367
     52 H20         15.8870    -4.6540     8.9710 ha         1 3HQ       0.116000
     53 H21          4.1180     0.0010    -2.1420 ha         1 3HQ       0.121000
     54 H22          1.6520    -0.0030    -2.1360 ha         1 3HQ       0.106000
@<TRIPOS>BOND
     1     1     2 1   
     2     1    33 1   
     3     1    34 1   
     4     1    35 1   
     5     2     3 ar  
     6     2    32 ar  
     7     3     4 ar  
     8     3    36 1   
     9     4     5 ar  
    10     4    37 1   
    11     5     6 1   
    12     5    31 ar  
    13     6     7 1   
    14     6    38 1   
    15     7     8 2   
    16     7     9 1   
    17     9    10 1   
    18     9    39 1   
    19    10    11 1   
    20    10    14 2   
    21    11    12 2   
    22    11    40 1   
    23    12    13 1   
    24    13    14 1   
    25    13    15 1   
    26    14    41 1   
    27    15    16 ar  
    28    15    20 ar  
    29    16    17 ar  
    30    16    42 1   
    31    17    18 ar  
    32    17    43 1   
    33    18    19 ar  
    34    18    44 1   
    35    19    20 ar  
    36    19    21 1   
    37    20    45 1   
    38    21    22 2   
    39    21    23 1   
    40    23    24 1   
    41    23    46 1   
    42    24    25 ar  
    43    24    30 ar  
    44    25    26 ar  
    45    25    47 1   
    46    26    27 ar  
    47    26    48 1   
    48    27    28 ar  
    49    28    29 1   
    50    28    30 ar  
    51    29    49 1   
    52    29    50 1   
    53    29    51 1   
    54    30    52 1   
    55    31    32 ar  
    56    31    53 1   
    57    32    54 1   
@<TRIPOS>SUBSTRUCTURE
     1 3HQ         1 TEMP              0 ****  ****    0 ROOT
