@<TRIPOS>MOLECULE
molecule
   14    13     1     0     0
SMALL
bcc


@<TRIPOS>ATOM
      1 C1           0.0000     0.0000     0.0000 c          1 3HR       0.896600
      2 O1           1.2080     0.0000     0.0000 o          1 3HR      -0.855300
      3 C2          -0.7540     0.0000     1.3060 c3         1 3HR      -0.180400
      4 O2           0.9840    -1.2200     2.4610 oh         1 3HR      -0.587800
      5 C3           0.2420     0.0010     2.4680 c3         1 3HR       0.161100
      6 O3          -0.6710     0.0040    -1.1620 o          1 3HR      -0.855300
      7 C4          -0.5190     0.1270     3.7900 c3         1 3HR      -0.129100
      8 H2          -1.3770     0.8840     1.3630 hc         1 3HR       0.036700
      9 H2A         -1.3760    -0.8850     1.3640 hc         1 3HR       0.036700
     10 HO2          1.8050    -1.0910     2.9060 ho         1 3HR       0.376000
     11 H3           0.9220     0.8380     2.3610 h1         1 3HR       0.036700
     12 H4          -1.1660    -0.7330     3.9180 hc         1 3HR       0.021033
     13 H4A          0.1870     0.1720     4.6100 hc         1 3HR       0.021033
     14 H4B         -1.1170     1.0300     3.7780 hc         1 3HR       0.021033
@<TRIPOS>BOND
     1     1     2 1   
     2     1     3 1   
     3     1     6 1   
     4     3     5 1   
     5     4     5 1   
     6     5     7 1   
     7     3     8 1   
     8     3     9 1   
     9     4    10 1   
    10     5    11 1   
    11     7    12 1   
    12     7    13 1   
    13     7    14 1   
@<TRIPOS>SUBSTRUCTURE
     1 3HR         1 TEMP              0 ****  ****    0 ROOT
