@<TRIPOS>MOLECULE
3HR
   14    13     1     0     0
SMALL
bcc


@<TRIPOS>ATOM
      1 C1          0.1280   -0.0880    0.0390 c         1 3HR      0.908600
      2 O1          1.3180   -0.5280    0.0090 o         1 3HR     -0.850800
      3 C2         -0.6560   -0.2070    1.3550 c3        1 3HR     -0.232400
      4 O2          1.2100   -0.8430    2.7940 oh        1 3HR     -0.658800
      5 C3          0.2040    0.1350    2.5620 c3        1 3HR      0.169100
      6 O3         -0.4520    0.4290   -0.9560 o         1 3HR     -0.850800
      7 C4         -0.6290    0.2150    3.8310 c3        1 3HR     -0.092100
      8 H2         -1.0230   -1.2600    1.4430 hc        1 3HR      0.032700
      9 H2A        -1.5400    0.4750    1.3200 hc        1 3HR      0.032700
     10 HO2         1.6130   -1.0290    1.9270 ho        1 3HR      0.453000
     11 H3          0.7120    1.1270    2.3840 h1        1 3HR      0.021700
     12 H4          0.0280    0.4090    4.7120 hc        1 3HR      0.021367
     13 H4A        -1.3740    1.0400    3.7400 hc        1 3HR      0.021367
     14 H4B        -1.1700   -0.7460    3.9990 hc        1 3HR      0.021367
@<TRIPOS>BOND
     1    1    2 1   
     2    1    3 1   
     3    1    6 1   
     4    3    5 1   
     5    3    8 1   
     6    3    9 1   
     7    4    5 1   
     8    4   10 1   
     9    5    7 1   
    10    5   11 1   
    11    7   12 1   
    12    7   13 1   
    13    7   14 1   
@<TRIPOS>SUBSTRUCTURE
     1 3HR         1 TEMP              0 ****  ****    0 ROOT
