@<TRIPOS>MOLECULE
3HS
   58    61     1     0     0
SMALL
bcc


@<TRIPOS>ATOM
      1 C10        -0.7170    0.3900    0.0320 c2        1 3HS     -0.203000
      2 C13        -0.1610   -0.7070    2.1720 c3        1 3HS     -0.181000
      3 C15         0.7250   -1.8330    4.6910 c2        1 3HS     -0.056000
      4 C17         0.2390   -4.2620    4.5340 c3        1 3HS     -0.232000
      5 C21        -1.1210   -7.2300    4.4570 c2        1 3HS      0.363000
      6 C22        -0.9320   -8.6680    4.7520 ca        1 3HS     -0.155000
      7 C24         0.5130  -10.6070    4.5760 ca        1 3HS     -0.134000
      8 C26        -0.1460  -12.7720    5.6330 c2        1 3HS      0.066000
      9 C28        -0.8100  -15.5690    6.8900 c1        1 3HS      0.113000
     10 O01         4.9310    2.5490    5.2220 o         1 3HS     -0.508500
     11 C03         3.2660    0.8380    4.9590 c2        1 3HS     -0.115000
     12 N04         2.6650    1.2020    3.8220 n2        1 3HS     -0.019000
     13 N05         1.6650    0.2960    3.5570 na        1 3HS     -0.119000
     14 C06         0.9010    0.3340    2.3940 c2        1 3HS      0.130000
     15 C07         1.0760    1.3140    1.4290 c2        1 3HS     -0.249000
     16 C08         0.2740    1.3410    0.2560 c2        1 3HS      0.100000
     17 CL1         0.5820    2.5850   -0.8470 cl        1 3HS      0.035000
     18 CL2        -1.6690    0.4370   -1.3750 cl        1 3HS      0.004000
     19 C12        -0.9560   -0.6270    0.9540 c1        1 3HS     -0.123000
     20 C14         1.6400   -0.7130    4.5810 c2        1 3HS     -0.157000
     21 C16         1.1170   -3.1080    4.3470 c2        1 3HS      0.024000
     22 C18        -1.0810   -3.9890    5.1070 c2        1 3HS      0.113000
     23 C19        -2.0830   -5.1010    5.2290 c3        1 3HS     -0.029000
     24 N20        -1.5470   -6.4000    5.4970 n         1 3HS     -0.385000
     25 C23         0.2530   -9.2670    4.3060 ca        1 3HS     -0.086000
     26 C25        -0.4150  -11.3710    5.2930 ca        1 3HS      0.021000
     27 C27         1.0670  -13.2710    5.9130 c2        1 3HS     -0.273000
     28 C29        -1.4450  -14.4470    6.6430 c2        1 3HS     -0.366000
     29 C30        -2.6170  -14.0020    7.5970 c2        1 3HS      0.408000
     30 O31        -2.6530  -12.7700    7.8390 o         1 3HS     -0.516000
     31 O32        -3.3910  -14.8860    8.0150 o         1 3HS     -0.516000
     32 O33        -1.3080  -13.5410    5.5910 os        1 3HS     -0.123000
     33 C34        -1.6230  -10.7910    5.7150 ca        1 3HS     -0.078000
     34 C35        -1.8790   -9.4490    5.4370 ca        1 3HS     -0.042000
     35 CL3        -3.3820   -8.8010    5.9160 cl        1 3HS     -0.020000
     36 O37        -0.8340   -6.7090    3.3570 o         1 3HS     -0.392000
     37 C38        -1.4400   -2.6970    5.4570 c2        1 3HS     -0.235000
     38 C39        -0.5570   -1.6310    5.2660 c2        1 3HS      0.115000
     39 C40         2.6460   -0.3890    5.4820 c2        1 3HS     -0.107000
     40 O41         4.7520    0.9260    6.7770 o         1 3HS     -0.508500
     41 H131        0.3140   -1.7320    2.1700 hc        1 3HS      0.141000
     42 H171        0.0890   -4.8080    3.5290 hc        1 3HS      0.243500
     43 H241        1.4480  -11.0670    4.2220 ha        1 3HS      0.146000
     44 H281        1.2000  -14.3170    6.2220 ha        1 3HS      0.127500
     45 H071        1.8450    2.1000    1.5450 ha        1 3HS      0.194000
     46 H121       -0.9030   -0.6700    3.0230 hc        1 3HS      0.141000
     47 H161        2.1210   -3.2940    3.9210 ha        1 3HS      0.189000
     48 H191        0.7750   -5.0550    5.1540 hc        1 3HS      0.243500
     49 H192       -2.6330   -5.1040    4.2310 h1        1 3HS      0.138500
     50 H201       -2.8280   -4.8350    6.0360 h1        1 3HS      0.138500
     51 H231        0.9750   -8.6660    3.7320 ha        1 3HS      0.139000
     52 H271        1.9710  -12.6550    5.8850 ha        1 3HS      0.127500
     53 H341       -2.3460  -11.4250    6.2880 ha        1 3HS      0.251000
     54 H381       -2.4330   -2.4980    5.8960 ha        1 3HS      0.177000
     55 H391       -0.8490   -0.6070    5.5710 ha        1 3HS      0.188000
     56 H401        2.9660   -0.8730    6.4020 ha        1 3HS      0.198000
     57 H202       -1.8310   -6.8290    6.3510 hn        1 3HS      0.254000
     58 C02         4.4320    1.5160    5.7140 c2        1 3HS      0.397000
@<TRIPOS>BOND
     1    1   16 1
     2    1   18 1
     3    1   19 1
     4    2   14 1
     5    2   19 1
     6    2   41 1
     7    2   46 1
     8    3   20 1
     9    3   21 1
    10    3   38 1
    11    4   21 1
    12    4   22 1
    13    4   42 1
    14    4   48 1
    15    5    6 1
    16    5   24 1
    17    5   36 1
    18    6   25 1
    19    6   34 1
    20    7   25 1
    21    7   26 1
    22    7   43 1
    23    8   26 1
    24    8   27 1
    25    8   32 1
    26    9   28 1
    27   10   58 1
    28   11   12 1
    29   11   39 1
    30   11   58 1
    31   12   13 1
    32   13   14 1
    33   13   20 1
    34   14   15 1
    35   15   16 1
    36   15   45 1
    37   16   17 1
    38   20   39 1
    39   21   47 1
    40   22   23 1
    41   22   37 1
    42   23   24 1
    43   23   49 1
    44   23   50 1
    45   24   57 1
    46   25   51 1
    47   26   33 1
    48   27   44 1
    49   27   52 1
    50   28   29 1
    51   28   32 1
    52   29   30 1
    53   29   31 1
    54   33   34 1
    55   33   53 1
    56   34   35 1
    57   37   38 1
    58   37   54 1
    59   38   55 1
    60   39   56 1
    61   40   58 1
@<TRIPOS>SUBSTRUCTURE
     1 3HS         1 TEMP              0 ****  ****    0 ROOT
