@<TRIPOS>MOLECULE
molecule
   35    38     1     0     0
SMALL
bcc


@<TRIPOS>ATOM
      1 C4           0.0000     0.0000     0.0000 ca         1 3HT      -0.177500
      2 C5           1.3810     0.0000     0.0000 ca         1 3HT      -0.090000
      3 C6           2.0740     0.0000     1.2030 ca         1 3HT      -0.053200
      4 C7           1.3790    -0.0000     2.4040 ca         1 3HT      -0.090000
      5 C8          -0.0010    -0.0010     2.4030 ca         1 3HT      -0.177500
      6 C10          4.2860    -0.8410     0.4990 cc         1 3HT       0.453700
      7 C13          6.6900     1.1550     2.1930 ca         1 3HT      -0.073000
      8 C15          5.1460     2.5640     3.3720 ca         1 3HT      -0.117900
      9 C17          4.2980     0.8510     1.9190 ca         1 3HT      -0.105200
     10 C21          5.2810     5.3280     5.7090 cs         1 3HT       0.554500
     11 S22          6.0800     6.4790     6.6910 s          1 3HT      -0.536400
     12 N20          3.9460     5.1870     5.5690 ns         1 3HT      -0.258900
     13 N19          3.7390     4.1280     4.6730 nd         1 3HT      -0.517300
     14 O32          5.8670     4.4020     4.9300 os         1 3HT      -0.316700
     15 C18          4.9080     3.6800     4.3130 cc         1 3HT       0.586200
     16 C14          6.4560     2.1810     3.0580 ca         1 3HT      -0.110000
     17 C16          4.0670     1.8960     2.8000 ca         1 3HT      -0.064000
     18 C12          5.6170     0.4730     1.6090 ca         1 3HT       0.118400
     19 N11          5.5350    -0.5610     0.7340 nd         1 3HT      -0.601100
     20 N9           3.4770    -0.0000     1.2030 na         1 3HT      -0.069400
     21 C3          -0.6940     0.0060     1.2000 ca         1 3HT       0.150100
     22 O2          -2.0540     0.0060     1.2000 os         1 3HT      -0.322900
     23 C1          -2.7020     0.0120     2.4730 c3         1 3HT       0.126700
     24 H4          -0.5410     0.0030    -0.9380 ha         1 3HT       0.150500
     25 H5           1.9220    -0.0020    -0.9380 ha         1 3HT       0.147500
     26 H7           1.9200    -0.0030     3.3430 ha         1 3HT       0.147500
     27 H8          -0.5440     0.0020     3.3400 ha         1 3HT       0.150500
     28 H10          3.9390    -1.6270    -0.1610 h5         1 3HT       0.082800
     29 H13          7.7070     0.8660     1.9580 ha         1 3HT       0.155000
     30 HN20         3.2390     5.7330     6.0190 hn         1 3HT       0.409500
     31 H14          7.2910     2.7060     3.5070 ha         1 3HT       0.154000
     32 H16          3.0600     2.2680     2.9460 ha         1 3HT       0.154000
     33 H1          -2.4160    -0.8730     3.0290 h1         1 3HT       0.045367
     34 H1A         -3.7760     0.0170     2.3310 h1         1 3HT       0.045367
     35 H1B         -2.4070     0.8960     3.0250 h1         1 3HT       0.045367
@<TRIPOS>BOND
     1    21     1 ar  
     2     1     2 ar  
     3     1    24 1   
     4     2     3 ar  
     5     2    25 1   
     6     4     3 ar  
     7     3    20 1   
     8     5     4 ar  
     9     4    26 1   
    10    21     5 ar  
    11     5    27 1   
    12    20     6 1   
    13     6    19 2   
    14     6    28 1   
    15    18     7 ar  
    16    16     7 ar  
    17     7    29 1   
    18    17     8 ar  
    19    15     8 1   
    20     8    16 ar  
    21    20     9 1   
    22    17     9 ar  
    23     9    18 ar  
    24    11    10 2   
    25    14    10 1   
    26    10    12 1   
    27    12    13 1   
    28    12    30 1   
    29    15    13 2   
    30    14    15 1   
    31    16    31 1   
    32    17    32 1   
    33    19    18 1   
    34    22    21 1   
    35    23    22 1   
    36    23    33 1   
    37    23    34 1   
    38    23    35 1   
@<TRIPOS>SUBSTRUCTURE
     1 3HT         1 TEMP              0 ****  ****    0 ROOT
