@<TRIPOS>MOLECULE
3HT
   35    38     1     0     0
SMALL
bcc


@<TRIPOS>ATOM
      1 C4           0.0000     0.0000     0.0000 ca         1 3HT      -0.165000
      2 C5           1.3810     0.0000     0.0000 ca         1 3HT      -0.044500
      3 C6           2.0740     0.0000     1.2030 ca         1 3HT      -0.233200
      4 C7           1.3790    -0.0000     2.4040 ca         1 3HT      -0.044500
      5 C8          -0.0010    -0.0010     2.4030 ca         1 3HT      -0.165000
      6 C10          4.2860    -0.8410     0.4990 cc         1 3HT       0.261700
      7 C13          6.6900     1.1550     2.1930 ca         1 3HT      -0.039000
      8 C15          5.1460     2.5640     3.3720 ca         1 3HT      -0.140900
      9 C17          4.2980     0.8510     1.9190 ca         1 3HT      -0.293200
     10 C21          5.2810     5.3280     5.7090 cs         1 3HT       0.398500
     11 S22          6.0800     6.4790     6.6910 s          1 3HT      -0.591400
     12 N20          3.9460     5.1870     5.5690 ns         1 3HT       0.206100
     13 N19          3.7390     4.1280     4.6730 nc         1 3HT      -0.660300
     14 O32          5.8670     4.4020     4.9300 os         1 3HT      -0.279700
     15 C18          4.9080     3.6800     4.3130 cd         1 3HT       0.632200
     16 C14          6.4560     2.1810     3.0580 ca         1 3HT      -0.089000
     17 C16          4.0670     1.8960     2.8000 ca         1 3HT      -0.014000
     18 C12          5.6170     0.4730     1.6090 ca         1 3HT       0.089400
     19 N11          5.5350    -0.5610     0.7340 nd         1 3HT      -0.520100
     20 N9           3.4770    -0.0000     1.2030 na         1 3HT       0.450600
     21 C3          -0.6940     0.0060     1.2000 ca         1 3HT       0.171100
     22 O2          -2.0540     0.0060     1.2000 os         1 3HT      -0.301900
     23 C1          -2.7020     0.0120     2.4730 c3         1 3HT       0.243700
     24 H4          -0.5410     0.0030    -0.9380 ha         1 3HT       0.127000
     25 H5           1.9220    -0.0020    -0.9380 ha         1 3HT       0.117000
     26 H7           1.9200    -0.0030     3.3430 ha         1 3HT       0.117000
     27 H8          -0.5440     0.0020     3.3400 ha         1 3HT       0.127000
     28 H10          3.9390    -1.6270    -0.1610 h5         1 3HT       0.033800
     29 H13          7.7070     0.8660     1.9580 ha         1 3HT       0.119000
     30 HN20         3.2390     5.7330     6.0190 hn         1 3HT       0.236500
     31 H14          7.2910     2.7060     3.5070 ha         1 3HT       0.121000
     32 H16          3.0600     2.2680     2.9460 ha         1 3HT       0.125000
     33 H1          -2.4160    -0.8730     3.0290 h1         1 3HT       0.001367
     34 H1A         -3.7760     0.0170     2.3310 h1         1 3HT       0.001367
     35 H1B         -2.4070     0.8960     3.0250 h1         1 3HT       0.001367
@<TRIPOS>BOND
     1     1     2 ar  
     2     1    21 ar  
     3     1    24 1   
     4     2     3 ar  
     5     2    25 1   
     6     3     4 ar  
     7     3    20 1   
     8     4     5 ar  
     9     4    26 1   
    10     5    21 ar  
    11     5    27 1   
    12     6    19 2   
    13     6    20 1   
    14     6    28 1   
    15     7    16 ar  
    16     7    18 ar  
    17     7    29 1   
    18     8    15 1   
    19     8    16 ar  
    20     8    17 ar  
    21     9    17 ar  
    22     9    18 ar  
    23     9    20 1   
    24    10    11 2   
    25    10    12 1   
    26    10    14 1   
    27    12    13 1   
    28    12    30 1   
    29    13    15 2   
    30    14    15 1   
    31    16    31 1   
    32    17    32 1   
    33    18    19 1   
    34    21    22 1   
    35    22    23 1   
    36    23    33 1   
    37    23    34 1   
    38    23    35 1   
@<TRIPOS>SUBSTRUCTURE
     1 3HT         1 TEMP              0 ****  ****    0 ROOT
