@<TRIPOS>MOLECULE
3HU
   38    40     1     0     0
SMALL
bcc


@<TRIPOS>ATOM
      1 C            0.0000     0.0000     0.0000 c          1 3HU       0.956600
      2 N            1.9960     1.2000    -0.6920 nz         1 3HU      -0.025600
      3 OXT         -0.6040     1.0300    -0.1810 o          1 3HU      -0.811300
      4 CA           1.5070     0.0000     0.0000 c3         1 3HU      -0.195500
      5 CB           2.0170     0.0000     1.4430 c3         1 3HU       0.065000
      6 OAB          7.5500    -4.6350     0.8900 o          1 3HU      -0.869800
      7 OAF          7.9280    -6.1610     2.4610 o          1 3HU      -0.869800
      8 CAH          6.3000    -2.6920     5.0530 cc         1 3HU      -0.087100
      9 CAI          6.0780    -2.0660     3.8920 cd         1 3HU      -0.137000
     10 CAJ          5.9960     2.7550     1.5170 cc         1 3HU       0.086900
     11 CAK          3.5040     2.6130     1.5170 cc         1 3HU      -0.138100
     12 SAN          4.7170     3.8770     1.5520 ss         1 3HU      -0.194800
     13 SAO          7.0190    -4.2180     4.7980 ss         1 3HU      -0.214800
     14 CAP          7.5110    -4.9400     2.0670 c          1 3HU       0.998200
     15 CAR          6.4650    -2.7620     2.7720 cd         1 3HU      -0.173300
     16 CAS          7.0120    -3.9820     3.0550 cc         1 3HU       0.075300
     17 CAT          6.2700     0.1870     1.4420 c          1 3HU       0.640100
     18 CAU          4.2340    -0.9850     1.4110 c          1 3HU       0.597500
     19 CAV          5.5310     1.4720     1.4810 cd         1 3HU      -0.208600
     20 CAW          4.0730     1.4020     1.4810 cd         1 3HU      -0.089400
     21 NAY          5.5730    -0.9620     1.4080 n          1 3HU      -0.075400
     22 NAZ          3.4770     0.1210     1.4450 n          1 3HU      -0.027000
     23 O           -0.6700    -1.1460     0.1980 o          1 3HU      -0.811300
     24 HN           2.5030     0.9410    -1.5160 hn         1 3HU       0.230800
     25 HNA          1.2050     1.7780    -0.8960 hn         1 3HU       0.230800
     26 HA           1.8430    -0.8740    -0.5450 hx         1 3HU       0.106700
     27 HB           1.6690    -0.8510     2.0150 h1         1 3HU       0.069200
     28 HBA          1.6730     0.8720     1.9860 h1         1 3HU       0.069200
     29 HAH          6.0550    -2.2840     6.0260 h4         1 3HU       0.129000
     30 HAI          5.6640    -1.0710     3.7820 ha         1 3HU       0.087000
     31 HAJ          7.0240     3.0570     1.6730 h4         1 3HU       0.169000
     32 HAK          2.4260     2.7190     1.5120 h4         1 3HU       0.163000
     33 HAL          7.2710    -2.1180     0.8980 h1         1 3HU       0.079700
     34 HALA         5.7290    -2.9440     0.7880 h1         1 3HU       0.079700
     35 CAL          6.3020    -2.2320     1.3700 c3         1 3HU       0.117300
     36 OAD          7.4860     0.1730     1.4390 o          1 3HU      -0.613500
     37 HN3          2.6110     1.7440    -0.1200 hn         1 3HU       0.230800
     38 OAE          3.6750    -2.0640     1.3800 o          1 3HU      -0.640500
@<TRIPOS>BOND
     1     1     3 1   
     2     1     4 1   
     3     1    23 1   
     4     2     4 1   
     5     2    24 1   
     6     2    25 1   
     7     2    37 1   
     8     4     5 1   
     9     4    26 1   
    10     5    22 1   
    11     5    27 1   
    12     5    28 1   
    13     6    14 1   
    14     7    14 1   
    15     8     9 2   
    16     8    13 1   
    17     8    29 1   
    18     9    15 1   
    19     9    30 1   
    20    10    12 1   
    21    10    19 2   
    22    10    31 1   
    23    11    12 1   
    24    11    20 2   
    25    11    32 1   
    26    13    16 1   
    27    14    16 1   
    28    15    16 2   
    29    15    35 1   
    30    17    19 1   
    31    17    21 1   
    32    17    36 2   
    33    18    21 1   
    34    18    22 1   
    35    18    38 2   
    36    19    20 1   
    37    20    22 1   
    38    21    35 1   
    39    33    35 1   
    40    34    35 1   
@<TRIPOS>SUBSTRUCTURE
     1 3HU         1 TEMP              0 ****  ****    0 ROOT
