@<TRIPOS>MOLECULE
molecule
   38    40     1     0     0
SMALL
bcc


@<TRIPOS>ATOM
      1 C            0.0000     0.0000     0.0000 c          1 3HU       0.868600
      2 N            1.9960     1.2000    -0.6920 nz         1 3HU      -0.821600
      3 OXT         -0.6040     1.0300    -0.1810 o          1 3HU      -0.774300
      4 CA           1.5070     0.0000     0.0000 c3         1 3HU      -0.023500
      5 CB           2.0170     0.0000     1.4430 c3         1 3HU       0.119000
      6 OAB          7.5500    -4.6350     0.8900 o          1 3HU      -0.826800
      7 OAF          7.9280    -6.1610     2.4610 o          1 3HU      -0.826800
      8 CAH          6.3000    -2.6920     5.0530 cc         1 3HU      -0.167100
      9 CAI          6.0780    -2.0660     3.8920 cd         1 3HU      -0.154000
     10 CAJ          5.9960     2.7550     1.5170 cc         1 3HU      -0.017100
     11 CAK          3.5040     2.6130     1.5170 cc         1 3HU      -0.226100
     12 SAN          4.7170     3.8770     1.5520 ss         1 3HU      -0.053800
     13 SAO          7.0190    -4.2180     4.7980 ss         1 3HU      -0.072800
     14 CAP          7.5110    -4.9400     2.0670 c          1 3HU       0.903200
     15 CAR          6.4650    -2.7620     2.7720 cd         1 3HU      -0.159300
     16 CAS          7.0120    -3.9820     3.0550 cc         1 3HU      -0.001700
     17 CAT          6.2700     0.1870     1.4420 c          1 3HU       0.721100
     18 CAU          4.2340    -0.9850     1.4110 c          1 3HU       0.803500
     19 CAV          5.5310     1.4720     1.4810 cd         1 3HU      -0.205600
     20 CAW          4.0730     1.4020     1.4810 cd         1 3HU       0.043600
     21 NAY          5.5730    -0.9620     1.4080 n          1 3HU      -0.460400
     22 NAZ          3.4770     0.1210     1.4450 n          1 3HU      -0.398000
     23 O           -0.6700    -1.1460     0.1980 o          1 3HU      -0.774300
     24 HN           2.5030     0.9410    -1.5160 hn         1 3HU       0.441467
     25 HNA          1.2050     1.7780    -0.8960 hn         1 3HU       0.441467
     26 HA           1.8430    -0.8740    -0.5450 hx         1 3HU       0.127700
     27 HB           1.6690    -0.8510     2.0150 h1         1 3HU       0.102700
     28 HBA          1.6730     0.8720     1.9860 h1         1 3HU       0.102700
     29 HAH          6.0550    -2.2840     6.0260 h4         1 3HU       0.144000
     30 HAI          5.6640    -1.0710     3.7820 ha         1 3HU       0.111000
     31 HAJ          7.0240     3.0570     1.6730 h4         1 3HU       0.199000
     32 HAK          2.4260     2.7190     1.5120 h4         1 3HU       0.176000
     33 HAL          7.2710    -2.1180     0.8980 h1         1 3HU       0.108200
     34 HALA         5.7290    -2.9440     0.7880 h1         1 3HU       0.108200
     35 CAL          6.3020    -2.2320     1.3700 c3         1 3HU       0.186300
     36 OAD          7.4860     0.1730     1.4390 o          1 3HU      -0.580500
     37 HN3          2.6110     1.7440    -0.1200 hn         1 3HU       0.441467
     38 OAE          3.6750    -2.0640     1.3800 o          1 3HU      -0.602500
@<TRIPOS>BOND
     1     4     1 1
     2     1    23 1
     3     1     3 1
     4     2     4 1
     5     2    24 1
     6     2    25 1
     7     5     4 1
     8     4    26 1
     9    22     5 1
    10     5    27 1
    11     5    28 1
    12    14     6 1
    13    36    17 2
    14    18    38 2
    15    14     7 1
    16     8     9 2
    17     8    13 1
    18     8    29 1
    19     9    15 1
    20     9    30 1
    21    10    12 1
    22    10    19 2
    23    10    31 1
    24    12    11 1
    25    11    20 2
    26    11    32 1
    27    21    35 1
    28    15    35 1
    29    35    33 1
    30    35    34 1
    31    13    16 1
    32    16    14 1
    33    15    16 2
    34    19    17 1
    35    17    21 1
    36    21    18 1
    37    22    18 1
    38    19    20 1
    39    20    22 1
    40    37     2 1
@<TRIPOS>SUBSTRUCTURE
     1 3HU         1 TEMP              0 ****  ****    0 ROOT
