@<TRIPOS>MOLECULE
3HV
   61    65     1     0     0
SMALL
bcc


@<TRIPOS>ATOM
      1 C10         0.2850   -0.0010    0.0200 c2        1 3HV      0.198000
      2 C15         1.8290   -1.2460    4.3610 c2        1 3HV     -0.310000
      3 C17        -1.7420   -2.0090    5.8130 c3        1 3HV     -0.192000
      4 C21        -1.7000    1.8360    9.9900 c2        1 3HV     -0.100000
      5 C22        -1.0180    2.9780    9.7700 c2        1 3HV     -0.154000
      6 C24        -2.9090    1.8040   10.8620 c3        1 3HV     -0.091000
      7 C26        -2.4420    4.2550   11.2820 c2        1 3HV     -0.013000
      8 C28        -2.1420    6.5310   12.4260 c2        1 3HV     -0.186000
      9 C02         0.2750   -0.2500    7.5670 c2        1 3HV      0.066000
     10 C03         0.3400   -0.7090    6.2370 c2        1 3HV     -0.302000
     11 C04        -0.8530   -0.8530    5.3440 c3        1 3HV     -0.078000
     12 C05        -0.5440   -1.0950    3.9360 c1        1 3HV     -0.012000
     13 C06         0.7840   -0.9420    3.4280 c2        1 3HV      0.019000
     14 C07         1.0900   -0.6280    2.1290 c2        1 3HV     -0.243000
     15 C08         2.6390    0.3290   -1.0480 c1        1 3HV     -0.103000
     16 C09         1.5780    0.1610   -0.5120 c1        1 3HV     -0.204000
     17 C11        -0.9850    0.2410   -0.9300 c2        1 3HV      0.405000
     18 O12        -1.4160    1.4030   -0.8930 o         1 3HV     -0.451500
     19 O13        -1.2980   -0.7670   -1.5830 o         1 3HV     -0.451500
     20 O14         0.0390   -0.3530    1.2470 os        1 3HV      0.056000
     21 C16         1.5960   -1.0860    5.7070 c2        1 3HV      0.033000
     22 C18        -2.1210   -0.2560    8.4540 cu        1 3HV     -0.494000
     23 N19        -0.9370    0.4560    7.9790 n4        1 3HV     -0.039000
     24 C23        -1.4480    4.2240   10.3600 c2        1 3HV     -0.096000
     25 C25        -3.0720    3.0090   11.7230 c2        1 3HV     -0.035000
     26 C27        -2.9030    5.5150   11.8450 c2        1 3HV     -0.065000
     27 C29        -3.0910    7.5800   12.7900 c2        1 3HV     -0.105000
     28 C30        -2.6950    8.8960   13.4570 c2        1 3HV      0.397000
     29 O31        -2.3970    9.8570   12.7020 o         1 3HV     -0.547000
     30 O32        -2.6630    8.9110   14.7150 o         1 3HV     -0.547000
     31 N33        -4.3390    7.2100   12.4410 n2        1 3HV     -0.073000
     32 N34        -4.2460    6.0040   11.8110 na        1 3HV     -0.145000
     33 C35        -5.3880    5.1960   11.5770 c2        1 3HV      0.111000
     34 C36        -3.8010    2.9890   12.8590 c2        1 3HV     -0.174000
     35 C37        -4.7090    1.9350   13.2590 c2        1 3HV     -0.075000
     36 C38        -6.0130    2.2250   13.4710 c2        1 3HV     -0.077000
     37 CL3        -7.0980    1.0030   13.9570 cl        1 3HV     -0.032000
     38 C40        -6.5460    3.5740   13.2790 c2        1 3HV      0.017000
     39 CL4        -7.9070    4.0310   14.2060 cl        1 3HV     -0.019000
     40 C42        -5.9910    4.4260   12.4510 c1        1 3HV     -0.176000
     41 H151        2.4370   -1.1890    6.4210 ha        1 3HV      0.155000
     42 H171       -2.0190   -1.8620    6.8890 hc        1 3HV      0.093000
     43 H202       -0.6550   -0.0440   10.1260 hx        1 3HV      0.168000
     44 H201       -1.0310    1.3160    7.4500 hn        1 3HV      0.179000
     45 H221       -0.1190    3.0050    9.1350 ha        1 3HV      0.132000
     46 H241       -2.8680    0.8840   11.5110 hc        1 3HV      0.108500
     47 H051       -1.4780    0.0940    5.3550 hc        1 3HV      0.134000
     48 H081        3.5760    0.4800   -1.5230 ha        1 3HV      0.225000
     49 H091        2.1030   -0.5580    1.7230 h4        1 3HV      0.151000
     50 H161        2.8160   -1.5410    3.9890 ha        1 3HV      0.122000
     51 H181       -1.1930   -2.9750    5.7130 hc        1 3HV      0.093000
     52 H231       -0.9530    5.1500   10.0280 ha        1 3HV      0.142000
     53 H251       -3.8150    1.6900   10.2000 hc        1 3HV      0.108500
     54 H361       -3.8050    3.8770   13.5230 ha        1 3HV      0.163000
     55 H371       -4.3120    0.9120   13.3670 ha        1 3HV      0.145000
     56 H421       -5.7610    5.2700   10.5340 h4        1 3HV      0.154000
     57 H3         -2.6620   -2.0520    5.1850 hc        1 3HV      0.093000
     58 H4         -3.1080    0.0060    8.0720 hx        1 3HV      0.097000
     59 S01         1.4740   -0.3740    8.6360 s         1 3HV     -0.321000
     60 C20        -1.3310    0.5150    9.4270 cx        1 3HV     -0.014000
     61 H281       -1.0700    6.5660   12.5770 ha        1 3HV      0.162000
@<TRIPOS>BOND
     1    1   16 1   
     2    1   17 1   
     3    1   20 1   
     4    2   13 1   
     5    2   21 1   
     6    2   50 1   
     7    3   11 1   
     8    3   42 1   
     9    3   51 1   
    10    3   57 1   
    11    4    5 1   
    12    4    6 1   
    13    4   60 1   
    14    5   24 1   
    15    5   45 1   
    16    6   25 1   
    17    6   46 1   
    18    6   53 1   
    19    7   24 1   
    20    7   25 1   
    21    7   26 1   
    22    8   26 1   
    23    8   27 1   
    24    8   61 1   
    25    9   10 1   
    26    9   23 1   
    27    9   59 1   
    28   10   11 1   
    29   10   21 1   
    30   11   12 1   
    31   11   47 1   
    32   12   13 1   
    33   13   14 1   
    34   14   20 1   
    35   14   49 1   
    36   15   16 1   
    37   15   48 1   
    38   17   18 1   
    39   17   19 1   
    40   21   41 1   
    41   22   23 1   
    42   22   58 1   
    43   22   60 1   
    44   23   44 1   
    45   23   60 1   
    46   24   52 1   
    47   25   34 1   
    48   26   32 1   
    49   27   28 1   
    50   27   31 1   
    51   28   29 1   
    52   28   30 1   
    53   31   32 1   
    54   32   33 1   
    55   33   40 1   
    56   33   56 1   
    57   34   35 1   
    58   34   54 1   
    59   35   36 1   
    60   35   55 1   
    61   36   37 1   
    62   36   38 1   
    63   38   39 1   
    64   38   40 1   
    65   43   60 1   
@<TRIPOS>SUBSTRUCTURE
     1 3HV         1 TEMP              0 ****  ****    0 ROOT
