@<TRIPOS>MOLECULE
3HW
   58    59     1     0     0
SMALL
bcc


@<TRIPOS>ATOM
      1 C10        -0.9330    2.0580    1.1810 ca        1 3HW     -0.090000
      2 C13        -0.4900    1.5780    3.5140 ca        1 3HW     -0.121000
      3 C15         3.8890    0.7260    3.1290 ca        1 3HW      0.047000
      4 C17         4.7090    2.5820    1.7970 ca        1 3HW     -0.087000
      5 C21         8.4020    4.5230   -4.4630 c2        1 3HW     -0.183000
      6 C22         8.9440    4.0850   -3.3170 c2        1 3HW     -0.002000
      7 C24        10.5090    5.1670   -1.7830 c1        1 3HW     -0.031000
      8 C26        12.9820    5.5090   -1.0400 c2        1 3HW      0.175000
      9 C28        15.6920    5.9070   -0.5790 c1        1 3HW      0.230000
     10 O01         1.0040   -1.5680    7.9350 o         1 3HW     -0.534000
     11 C03         2.0180   -0.9080    5.8620 c2        1 3HW     -0.121000
     12 N04         1.0210   -0.2490    5.2460 n2        1 3HW     -0.044000
     13 N05         1.5590    0.4220    4.1840 na        1 3HW     -0.125000
     14 C06         0.7320    0.9500    3.1670 ca        1 3HW      0.118000
     15 C07         1.0870    0.8650    1.8050 ca        1 3HW     -0.161000
     16 C08         0.2640    1.4250    0.8270 ca        1 3HW     -0.042000
     17 CL0         0.7450    1.3110   -0.8020 cl        1 3HW     -0.015000
     18 CL1        -1.9510    2.7470    0.0080 cl        1 3HW     -0.016000
     19 C12        -1.3030    2.1190    2.5290 ca        1 3HW     -0.109000
     20 C14         2.9590    0.1460    4.0720 c2        1 3HW     -0.099000
     21 C16         3.7700    2.0480    2.6750 ca        1 3HW     -0.136000
     22 C18         5.7810    1.8000    1.3460 ca        1 3HW     -0.136000
     23 C19         6.7520    2.3810    0.3980 c2        1 3HW      0.104000
     24 N20         7.2210    1.5640   -0.5800 n         1 3HW     -0.351000
     25 C23         9.1340    4.9920   -2.1370 c3        1 3HW     -0.072000
     26 C25        11.6500    5.3240   -1.4520 c1        1 3HW     -0.181000
     27 C27        13.4150    5.4980    0.2300 c2        1 3HW     -0.307000
     28 C29        15.1760    5.9010   -1.8220 c2        1 3HW     -0.320000
     29 C30        15.9850    6.0990   -3.0440 c2        1 3HW      0.379000
     30 O31        15.3840    6.0540   -4.2620 oh        1 3HW     -0.275000
     31 O32        17.1980    6.3080   -3.0790 o         1 3HW     -0.301000
     32 O33        13.8260    5.7120   -2.1390 os        1 3HW     -0.154000
     33 C34         9.6650    1.5990   -2.9850 c1        1 3HW     -0.211000
     34 C35         9.3340    2.7400   -3.1400 c1        1 3HW     -0.126000
     35 S36         7.2140    3.9140    0.5260 s         1 3HW     -0.279000
     36 C37         5.9160    0.4840    1.8140 ca        1 3HW     -0.087000
     37 C38         4.9830   -0.0450    2.6980 ca        1 3HW     -0.136000
     38 C39         3.2730   -0.6910    5.1440 c2        1 3HW     -0.144000
     39 O40         2.8510   -2.6350    7.2380 o         1 3HW     -0.534000
     40 H131       -0.8060    1.6290    4.5690 ha        1 3HW      0.174000
     41 H171        4.6220    3.6270    1.4580 ha        1 3HW      0.141000
     42 H211        8.0990    5.5690   -4.5990 ha        1 3HW      0.123000
     43 H212        8.2290    3.8630   -5.3220 ha        1 3HW      0.123000
     44 H241        8.6810    6.0010   -2.3560 hc        1 3HW      0.150000
     45 H281       14.4790    5.6490    0.5570 ha        1 3HW      0.171000
     46 H071        2.0160    0.3530    1.5040 ha        1 3HW      0.162000
     47 H121       -2.2500    2.6040    2.8130 ha        1 3HW      0.147000
     48 H161        2.9300    2.6710    3.0200 ha        1 3HW      0.153000
     49 H201        6.9070    0.6280   -0.6630 hn        1 3HW      0.235000
     50 H231        8.5640    4.5610   -1.2410 hc        1 3HW      0.150000
     51 H271       12.7340    5.3350    1.0750 ha        1 3HW      0.171000
     52 H341        9.9740    0.5930   -2.8540 ha        1 3HW      0.226000
     53 H351       14.4330    5.8850   -4.1790 ho        1 3HW      0.251000
     54 H371        6.7720   -0.1360    1.5090 ha        1 3HW      0.141000
     55 H381        5.0970   -1.0750    3.0740 ha        1 3HW      0.153000
     56 H391        4.2310   -1.1060    5.4430 ha        1 3HW      0.180000
     57 H202        7.8830    1.9110   -1.2390 hn        1 3HW      0.235000
     58 C02         1.9350   -1.7770    7.1220 c2        1 3HW      0.394000
@<TRIPOS>BOND
     1    1   16 1   
     2    1   18 1   
     3    1   19 1   
     4    2   14 1   
     5    2   19 1   
     6    2   40 1   
     7    3   20 1   
     8    3   21 1   
     9    3   37 1   
    10    4   21 1   
    11    4   22 1   
    12    4   41 1   
    13    5    6 1   
    14    5   42 1   
    15    5   43 1   
    16    6   25 1   
    17    6   34 1   
    18    7   25 1   
    19    7   26 1   
    20    8   26 1   
    21    8   27 1   
    22    8   32 1   
    23    9   28 1   
    24   10   58 1   
    25   11   12 1   
    26   11   38 1   
    27   11   58 1   
    28   12   13 1   
    29   13   14 1   
    30   13   20 1   
    31   14   15 1   
    32   15   16 1   
    33   15   46 1   
    34   16   17 1   
    35   19   47 1   
    36   20   38 1   
    37   21   48 1   
    38   22   23 1   
    39   22   36 1   
    40   23   24 1   
    41   23   35 1   
    42   24   49 1   
    43   24   57 1   
    44   25   44 1   
    45   25   50 1   
    46   27   45 1   
    47   27   51 1   
    48   28   29 1   
    49   28   32 1   
    50   29   30 1   
    51   29   31 1   
    52   30   53 1   
    53   33   34 1   
    54   33   52 1   
    55   36   37 1   
    56   36   54 1   
    57   37   55 1   
    58   38   56 1   
    59   39   58 1   
@<TRIPOS>SUBSTRUCTURE
     1 3HW         1 TEMP              0 ****  ****    0 ROOT
