@<TRIPOS>MOLECULE
3HX
   41    40     1     0     0
SMALL
bcc


@<TRIPOS>ATOM
      1 NO           0.0000     0.0000     0.0000 no         1 3HX       1.026500
      2 O2           1.2350     0.0000     0.0000 o          1 3HX      -0.406500
      3 O3          -0.7260     0.0000     0.9990 o          1 3HX      -0.406500
      4 N           -4.1620     1.0950    -7.5950 nz         1 3HX       0.062400
      5 CA          -4.8620    -0.1020    -7.1150 c3         1 3HX       0.004500
      6 C           -6.2720    -0.1300    -7.7310 c3         1 3HX      -0.056200
      7 CB          -4.8970    -0.1130    -5.5720 c3         1 3HX      -0.047400
      8 CG          -3.4980    -0.0640    -4.9380 c3         1 3HX      -0.035400
      9 CD          -3.5360    -0.0090    -3.4090 c3         1 3HX       0.202800
     10 NE          -2.1980    -0.0040    -2.8280 nu         1 3HX      -0.587200
     11 CZ          -1.9410    -0.0010    -1.4730 c2         1 3HX       0.571100
     12 NH1         -0.5650     0.0030    -1.2480 nu         1 3HX      -0.676500
     13 NH2         -2.8990    -0.0030    -0.5880 n2         1 3HX      -0.678100
     14 NA          -7.0110    -1.3290    -7.3460 n3         1 3HX      -0.216100
     15 O1'         -6.2890    -2.4210    -7.9760 oh         1 3HX      -0.502300
     16 C1'         -8.3300    -1.3530    -7.9680 c3         1 3HX       0.138800
     17 C2'         -9.1190    -2.5920    -7.5810 c3         1 3HX      -0.073200
     18 HA          -4.3200    -0.9770    -7.4530 hx         1 3HX       0.085700
     19 H1          -5.5380    -0.8510    -8.0710 h1         1 3HX       0.098700
     20 H2          -6.5270     0.4240    -8.6260 h1         1 3HX       0.098700
     21 HB1         -5.4640     0.7450    -5.2310 hc         1 3HX       0.060200
     22 HB2         -5.3970    -1.0150    -5.2420 hc         1 3HX       0.060200
     23 HG1         -2.9470    -0.9460    -5.2410 hc         1 3HX       0.012700
     24 HG2         -2.9800     0.8140    -5.3050 hc         1 3HX       0.012700
     25 HD1         -4.0560     0.8900    -3.1020 h1         1 3HX       0.020200
     26 HD2         -4.0770    -0.8720    -3.0390 h1         1 3HX       0.020200
     27 HNE         -1.4170    -0.0020    -3.4530 hn         1 3HX       0.288800
     28 HNH1         0.0440     0.0070    -2.0430 hn         1 3HX       0.350800
     29 HNH2        -3.8540    -0.0060    -0.8850 hn         1 3HX       0.331400
     30 HO1'        -6.2260    -3.1440    -7.3740 ho         1 3HX       0.444000
     31 HNB1       -10.9400    -1.8240    -7.9360 hn         1 3HX       0.228133
     32 HNB2       -10.8980    -3.4570    -7.9260 hn         1 3HX       0.228133
     33 H1'1        -8.8810    -0.4730    -7.6580 h1         1 3HX       0.043200
     34 H1'2        -8.2110    -1.3330    -9.0450 h1         1 3HX       0.043200
     35 H2'1        -8.5600    -3.4710    -7.8760 hx         1 3HX       0.094700
     36 H2'2        -9.2500    -2.6030    -6.5060 hx         1 3HX       0.094700
     37 HN1         -3.1790     0.9900    -7.4420 hn         1 3HX       0.236800
     38 NB         -10.4130    -2.6290    -8.2100 nz         1 3HX       0.121400
     39 HN2         -4.3370     1.2140    -8.5730 hn         1 3HX       0.236800
     40 HB3        -10.3000    -2.6430    -9.2040 hn         1 3HX       0.228133
     41 HN3         -4.4940     1.8970    -7.0970 hn         1 3HX       0.236800
@<TRIPOS>BOND
     1     1     2 1   
     2     1     3 1   
     3     1    12 1   
     4     4     5 1   
     5     4    37 1   
     6     4    39 1   
     7     4    41 1   
     8     5     6 1   
     9     5     7 1   
    10     5    18 1   
    11     6    14 1   
    12     6    19 1   
    13     6    20 1   
    14     7     8 1   
    15     7    21 1   
    16     7    22 1   
    17     8     9 1   
    18     8    23 1   
    19     8    24 1   
    20     9    10 1   
    21     9    25 1   
    22     9    26 1   
    23    10    11 1   
    24    10    27 1   
    25    11    12 1   
    26    11    13 2   
    27    12    28 1   
    28    13    29 1   
    29    14    15 1   
    30    14    16 1   
    31    15    30 1   
    32    16    17 1   
    33    16    33 1   
    34    16    34 1   
    35    17    35 1   
    36    17    36 1   
    37    17    38 1   
    38    31    38 1   
    39    32    38 1   
    40    38    40 1   
@<TRIPOS>SUBSTRUCTURE
     1 3HX         1 TEMP              0 ****  ****    0 ROOT
