@<TRIPOS>MOLECULE
molecule
   41    40     1     0     0
SMALL
bcc


@<TRIPOS>ATOM
      1 NO           0.0000     0.0000     0.0000 no         1 3HX       0.455500
      2 O2           1.2350     0.0000     0.0000 o          1 3HX      -0.172500
      3 O3          -0.7260     0.0000     0.9990 o          1 3HX      -0.172500
      4 N           -4.1620     1.0950    -7.5950 nz         1 3HX      -0.813600
      5 CA          -4.8620    -0.1020    -7.1150 c3         1 3HX       0.173500
      6 C           -6.2720    -0.1300    -7.7310 c3         1 3HX      -0.055200
      7 CB          -4.8970    -0.1130    -5.5720 c3         1 3HX      -0.105400
      8 CG          -3.4980    -0.0640    -4.9380 c3         1 3HX      -0.116400
      9 CD          -3.5360    -0.0090    -3.4090 c3         1 3HX       0.274800
     10 NE          -2.1980    -0.0040    -2.8280 nu         1 3HX      -0.911200
     11 CZ          -1.9410    -0.0010    -1.4730 c2         1 3HX       0.852100
     12 NH1         -0.5650     0.0030    -1.2480 nu         1 3HX      -0.866500
     13 NH2         -2.8990    -0.0030    -0.5880 n2         1 3HX      -0.874100
     14 NA          -7.0110    -1.3290    -7.3460 n3         1 3HX      -0.381100
     15 O1'         -6.2890    -2.4210    -7.9760 oh         1 3HX      -0.495300
     16 C1'         -8.3300    -1.3530    -7.9680 c3         1 3HX       0.109800
     17 C2'         -9.1190    -2.5920    -7.5810 c3         1 3HX       0.082800
     18 HA          -4.3200    -0.9770    -7.4530 hx         1 3HX       0.108700
     19 H1          -5.5380    -0.8510    -8.0710 h1         1 3HX       0.132700
     20 H2          -6.5270     0.4240    -8.6260 h1         1 3HX       0.132700
     21 HB1         -5.4640     0.7450    -5.2310 hc         1 3HX       0.097700
     22 HB2         -5.3970    -1.0150    -5.2420 hc         1 3HX       0.097700
     23 HG1         -2.9470    -0.9460    -5.2410 hc         1 3HX       0.041200
     24 HG2         -2.9800     0.8140    -5.3050 hc         1 3HX       0.041200
     25 HD1         -4.0770    -0.8720    -3.0390 h1         1 3HX       0.064200
     26 HD2         -4.0560     0.8900    -3.1020 h1         1 3HX       0.064200
     27 HNE         -1.4170    -0.0020    -3.4530 hn         1 3HX       0.427800
     28 HNH1         0.0440     0.0070    -2.0430 hn         1 3HX       0.472800
     29 HNH2        -2.6780    -0.0020     0.3880 hn         1 3HX       0.467400
     30 HO1'        -6.2260    -3.1440    -7.3740 ho         1 3HX       0.446000
     31 HNB1       -10.3010    -2.6320    -9.2040 hn         1 3HX       0.468467
     32 HNB2       -10.8980    -3.4570    -7.9260 hn         1 3HX       0.468467
     33 H1'1        -8.2110    -1.3330    -9.0450 h1         1 3HX       0.079700
     34 H1'2        -8.8810    -0.4730    -7.6580 h1         1 3HX       0.079700
     35 H2'1        -9.2500    -2.6030    -6.5060 hx         1 3HX       0.124700
     36 H2'2        -8.5600    -3.4710    -7.8760 hx         1 3HX       0.124700
     37 HN1         -3.1790     0.9900    -7.4420 hn         1 3HX       0.467133
     38 NB         -10.4130    -2.6290    -8.2100 nz         1 3HX      -0.794600
     39 HN2         -4.3370     1.2140    -8.5730 hn         1 3HX       0.467133
     40 HB3        -10.9360    -1.8180    -7.9450 hn         1 3HX       0.468467
     41 HN3         -4.4940     1.8970    -7.0960 hn         1 3HX       0.467133
@<TRIPOS>BOND
     1     1    12 1
     2     1     3 1
     3     1     2 1
     4     4     5 1
     5     4    37 1
     6     4    41 1
     7     5     7 1
     8     5     6 1
     9     5    18 1
    10     6    14 1
    11     6    19 1
    12     6    20 1
    13     7     8 1
    14     7    21 1
    15     7    22 1
    16     8     9 1
    17     8    23 1
    18     8    24 1
    19     9    10 1
    20     9    25 1
    21     9    26 1
    22    10    11 1
    23    10    27 1
    24    11    13 2
    25    11    12 1
    26    12    28 1
    27    13    29 1
    28    14    15 1
    29    14    16 1
    30    15    30 1
    31    38    17 1
    32    38    31 1
    33    38    32 1
    34    16    17 1
    35    16    33 1
    36    16    34 1
    37    17    35 1
    38    17    36 1
    39    39     4 1
    40    40    38 1
@<TRIPOS>SUBSTRUCTURE
     1 3HX         1 TEMP              0 ****  ****    0 ROOT
