@<TRIPOS>MOLECULE
molecule
   17    17     1     0     0
SMALL
bcc


@<TRIPOS>ATOM
      1 C4           0.0000     0.0000     0.0000 ca         1 3HY      -0.116000
      2 C5           1.3820     0.0000     0.0000 ca         1 3HY      -0.119000
      3 C6           2.0750     0.0000     1.1950 ca         1 3HY      -0.145000
      4 C7           1.3810     0.0010     2.3970 ca         1 3HY       0.101100
      5 C8          -0.0070     0.0010     2.3940 ca         1 3HY      -0.134000
      6 O1          -2.6770     1.3540     1.1970 oh         1 3HY      -0.600800
      7 C3          -0.6940     0.0070     1.1960 ca         1 3HY      -0.074300
      8 O2           2.0590     0.0020     3.5740 oh         1 3HY      -0.520100
      9 H1          -0.5410     0.0020    -0.9390 ha         1 3HY       0.134000
     10 H2           1.9230    -0.0030    -0.9390 ha         1 3HY       0.134000
     11 H3           3.1580     0.0000     1.1950 ha         1 3HY       0.140000
     12 H4          -0.5500     0.0040     3.3310 ha         1 3HY       0.142000
     13 H5          -2.6060    -0.5230     2.0470 h1         1 3HY       0.025700
     14 H6          -2.5160    -0.4850     0.2800 h1         1 3HY       0.025700
     15 H7          -3.6200     1.3530     1.1940 ho         1 3HY       0.401000
     16 H8           2.1780    -0.8860     3.8690 ho         1 3HY       0.417000
     17 C2          -2.2010     0.0060     1.1930 c3         1 3HY       0.187700
@<TRIPOS>BOND
     1     6    17 1   
     2    17     7 1   
     3     5     7 ar  
     4     5     4 ar  
     5     7     1 ar  
     6     8     4 1   
     7     4     3 ar  
     8     1     2 ar  
     9     3     2 ar  
    10     1     9 1   
    11     2    10 1   
    12     3    11 1   
    13     5    12 1   
    14    17    13 1   
    15    17    14 1   
    16     6    15 1   
    17     8    16 1   
@<TRIPOS>SUBSTRUCTURE
     1 3HY         1 TEMP              0 ****  ****    0 ROOT
