@<TRIPOS>MOLECULE
3HY
   17    15     1     0     0
SMALL
bcc


@<TRIPOS>ATOM
      1 C4          1.8350   -1.1940   -0.4590 c2        1 3HY     -0.225000
      2 C5          2.4980   -0.2230    0.1760 ce        1 3HY      0.010300
      3 C6          1.9280    0.6210    1.1360 cg        1 3HY     -0.222300
      4 C7          1.4500    1.3460    1.9600 c1        1 3HY     -0.000400
      5 C8         -1.8720   -1.2210    0.6780 c1        1 3HY     -0.109500
      6 O1         -1.9750    1.5910    2.6880 oh        1 3HY     -0.613800
      7 C3         -2.1510   -0.5340    1.6170 c1        1 3HY     -0.200100
      8 O2          1.0100    2.1910    2.8740 oh        1 3HY     -0.385600
      9 H1          0.7740   -1.4100   -0.2740 ha        1 3HY      0.113500
     10 H2          2.3230   -1.8330   -1.2050 ha        1 3HY      0.113500
     11 H3          3.5680   -0.0300   -0.0320 ha        1 3HY      0.135000
     12 H4         -1.6230   -1.8290   -0.1550 ha        1 3HY      0.168500
     13 H5         -2.0290   -0.1540    3.6990 h1        1 3HY      0.067700
     14 H6         -3.6110    0.3110    2.8840 h1        1 3HY      0.067700
     15 H7         -2.2960    1.9890    1.8700 ho        1 3HY      0.414000
     16 H8          0.0640    1.9720    3.0170 ho        1 3HY      0.455000
     17 C2         -2.4910    0.2710    2.7620 c3        1 3HY      0.211500
@<TRIPOS>BOND
     1    1    2 2   
     2    1    9 1   
     3    1   10 1   
     4    2    3 1   
     5    2   11 1   
     6    3    4 3   
     7    4    8 1   
     8    5    7 3   
     9    5   12 1   
    10    6   15 1   
    11    6   17 1   
    12    7   17 1   
    13    8   16 1   
    14   13   17 1   
    15   14   17 1   
@<TRIPOS>SUBSTRUCTURE
     1 3HY         1 TEMP              0 ****  ****    0 ROOT
