@<TRIPOS>MOLECULE
3HZ
   64    64     1     0     0
SMALL
bcc


@<TRIPOS>ATOM
      1 C10         2.9770    0.8090   -0.4710 c2        1 3HZ     -0.013000
      2 C13         2.5470    3.2960    0.1650 c2        1 3HZ     -0.118000
      3 C15        -0.4580   -1.9110    4.4990 ca        1 3HZ      0.022000
      4 C17        -2.2440   -3.0740    3.3430 ca        1 3HZ     -0.123000
      5 C21        -2.2740   -7.2800    3.4790 c2        1 3HZ      0.300000
      6 C22        -2.4900   -6.9110    2.0360 c3        1 3HZ     -0.237000
      7 C24        -0.5350   -7.4130    6.7810 c2        1 3HZ     -0.202000
      8 C26        -2.1580   -9.2680    6.9700 c3        1 3HZ     -0.203000
      9 C28        -3.8890   -8.9840    8.7450 c2        1 3HZ     -0.126000
     10 O01         2.3660    3.2490    5.8140 o         1 3HZ     -0.536500
     11 C03         1.6520    1.0110    5.3410 c2        1 3HZ     -0.119000
     12 N04         1.9960    0.8150    4.0560 n2        1 3HZ     -0.036000
     13 N05         1.2690   -0.2450    3.5950 na        1 3HZ     -0.121000
     14 C06         1.4960   -0.8860    2.3760 c2        1 3HZ      0.103000
     15 C07         2.3840   -0.5480    1.4680 c1        1 3HZ     -0.220000
     16 C08         3.2330   -0.2160    0.5400 c2        1 3HZ      0.049000
     17 CL0         4.7710   -0.9710    0.4360 cl        1 3HZ     -0.037000
     18 CL1         2.9780    0.2810   -2.1010 cl        1 3HZ     -0.039000
     19 C12         2.7580    2.0640   -0.1750 c1        1 3HZ     -0.133000
     20 C14         0.4530   -0.7940    4.6370 c2        1 3HZ     -0.098000
     21 C16        -1.3490   -2.0090    3.4210 ca        1 3HZ     -0.123500
     22 C18        -2.2740   -4.0500    4.3430 ca        1 3HZ     -0.133000
     23 C19        -3.2900   -5.1540    4.2760 c3        1 3HZ      0.011000
     24 N20        -2.7910   -6.4840    4.4870 n         1 3HZ     -0.368000
     25 O23        -1.6790   -8.3330    3.8010 o         1 3HZ     -0.395000
     26 C25        -1.4900   -8.0350    7.4880 c2        1 3HZ     -0.125000
     27 C27        -3.3470   -9.7450    7.6490 c1        1 3HZ     -0.011000
     28 C29        -5.1460   -9.1920    9.2100 c2        1 3HZ     -0.016000
     29 C30        -8.4390   -9.4410   11.0570 c1        1 3HZ     -0.101000
     30 C31        -7.7730   -9.8330   10.1360 c1        1 3HZ     -0.269000
     31 C32        -7.1620  -10.4210    9.0100 c1        1 3HZ      0.121000
     32 C33        -8.1410  -12.1620    7.4990 c1        1 3HZ      0.452000
     33 O34        -7.7880  -13.0680    8.1890 o         1 3HZ     -0.235500
     34 O35        -8.5660  -11.3580    6.7290 o         1 3HZ     -0.235500
     35 O36        -5.9730  -10.1380    8.5810 os        1 3HZ     -0.019000
     36 C37        -3.0450   -7.9810    9.3870 c2        1 3HZ     -0.165000
     37 C38        -1.9220   -7.5450    8.7880 c2        1 3HZ     -0.095000
     38 C39        -1.3880   -3.9530    5.4200 ca        1 3HZ     -0.123000
     39 C40        -0.4870   -2.8960    5.5000 ca        1 3HZ     -0.123500
     40 C41         0.6790   -0.0010    5.7590 c2        1 3HZ     -0.149000
     41 O42         2.2480    1.7700    7.4970 o         1 3HZ     -0.536500
     42 H131        1.5410    3.6760    0.3980 ha        1 3HZ      0.143000
     43 H171       -2.9390   -3.1370    2.4910 ha        1 3HZ      0.125000
     44 H222       -2.0800   -5.8920    1.8270 hc        1 3HZ      0.106667
     45 H223       -3.5800   -6.9250    1.7920 hc        1 3HZ      0.106667
     46 H221       -1.9640   -7.6560    1.3910 hc        1 3HZ      0.106667
     47 H241       -2.4820   -6.6980    5.4140 hn        1 3HZ      0.227000
     48 H242       -0.0160   -6.5180    7.1470 ha        1 3HZ      0.130000
     49 H071        0.8170   -1.7460    2.1940 h4        1 3HZ      0.154000
     50 H121        3.3680    4.0230    0.2710 ha        1 3HZ      0.143000
     51 H161       -1.3550   -1.2300    2.6430 ha        1 3HZ      0.147500
     52 H192       -3.8200   -5.1180    3.2810 h1        1 3HZ      0.096000
     53 H191       -4.0620   -4.9590    5.0800 h1        1 3HZ      0.096000
     54 H271       -2.4260   -9.1340    5.8730 hc        1 3HZ      0.168500
     55 H301       -5.6020   -8.6450   10.0500 h4        1 3HZ      0.146000
     56 H311       -9.0310   -9.0960   11.8690 ha        1 3HZ      0.228000
     57 H371       -3.3590   -7.5930   10.3680 ha        1 3HZ      0.127000
     58 H381       -1.2880   -6.7790    9.2650 ha        1 3HZ      0.134000
     59 H391       -1.3980   -4.7160    6.2140 ha        1 3HZ      0.125000
     60 H401        0.2070   -2.8170    6.3510 ha        1 3HZ      0.147500
     61 H411        0.2490   -0.0690    6.7530 ha        1 3HZ      0.176000
     62 H201       -0.2290   -7.7740    5.7870 ha        1 3HZ      0.130000
     63 C02         2.1430    2.1090    6.2880 c2        1 3HZ      0.394000
     64 H261       -1.4190  -10.1260    6.9800 hc        1 3HZ      0.168500
@<TRIPOS>BOND
     1    1   16 1
     2    1   18 1
     3    1   19 1
     4    2   19 1
     5    2   42 1
     6    2   50 1
     7    3   20 1
     8    3   21 1
     9    3   39 1
    10    4   21 1
    11    4   22 1
    12    4   43 1
    13    5    6 1
    14    5   24 1
    15    5   25 1
    16    6   44 1
    17    6   45 1
    18    6   46 1
    19    7   26 1
    20    7   48 1
    21    7   62 1
    22    8   26 1
    23    8   27 1
    24    8   54 1
    25    8   64 1
    26    9   27 1
    27    9   28 1
    28    9   36 1
    29   10   63 1
    30   11   12 1
    31   11   40 1
    32   11   63 1
    33   12   13 1
    34   13   14 1
    35   13   20 1
    36   14   15 1
    37   14   49 1
    38   15   16 1
    39   16   17 1
    40   20   40 1
    41   21   51 1
    42   22   23 1
    43   22   38 1
    44   23   24 1
    45   23   52 1
    46   23   53 1
    47   24   47 1
    48   26   37 1
    49   28   35 1
    50   28   55 1
    51   29   30 1
    52   29   56 1
    53   30   31 1
    54   31   35 1
    55   32   33 1
    56   32   34 1
    57   36   37 1
    58   36   57 1
    59   37   58 1
    60   38   39 1
    61   38   59 1
    62   39   60 1
    63   40   61 1
    64   41   63 1
@<TRIPOS>SUBSTRUCTURE
     1 3HZ         1 TEMP              0 ****  ****    0 ROOT
