@<TRIPOS>MOLECULE
molecule
   40    41     1     0     0
SMALL
bcc


@<TRIPOS>ATOM
      1 O15          0.0000     0.0000     0.0000 oh         1 3I6      -0.611800
      2 C14          1.4290     0.0000     0.0000 c3         1 3I6       0.124400
      3 C13          1.9400     0.0000     1.4420 c3         1 3I6       0.240500
      4 C15          1.3290     1.1810     2.1990 c3         1 3I6      -0.103100
      5 N9           1.5520    -1.2530     2.0970 nu         1 3I6      -0.872900
      6 C9           2.2880    -1.7310     3.1680 ca         1 3I6       0.787200
      7 N10          3.3480    -1.0600     3.6110 nb         1 3I6      -0.844000
      8 C8           1.9240    -2.9200     3.8040 ca         1 3I6      -0.372500
      9 Br1          0.4220    -3.9090     3.2200 br         1 3I6      -0.055100
     10 C7           2.6890    -3.3590     4.8690 ca         1 3I6       0.552200
     11 N12          3.7350    -2.6430     5.2540 nb         1 3I6      -0.844000
     12 C11          4.0530    -1.5150     4.6360 ca         1 3I6       0.959900
     13 N1           5.1520    -0.7930     5.0720 nu         1 3I6      -0.746300
     14 C2           5.9780    -1.3130     6.0740 ca         1 3I6       0.277600
     15 C3           6.1860    -2.6830     6.1630 ca         1 3I6      -0.160000
     16 C4           7.0020    -3.1930     7.1540 ca         1 3I6      -0.010000
     17 C1           6.5950    -0.4600     6.9790 ca         1 3I6      -0.160000
     18 C6           7.4100    -0.9760     7.9670 ca         1 3I6      -0.010000
     19 C5           7.6100    -2.3410     8.0570 ca         1 3I6      -0.374500
     20 S1           8.6490    -2.9960     9.3200 sy         1 3I6       1.222200
     21 O2           8.6680    -2.0330    10.3650 o          1 3I6      -0.524800
     22 O3           8.2460    -4.3450     9.5130 o          1 3I6      -0.524800
     23 N4          10.1880    -3.0520     8.7090 nz         1 3I6      -0.805500
     24 H15         -0.3140    -0.0080    -0.8890 ho         1 3I6       0.414000
     25 H141         1.7900    -0.8840    -0.5110 h1         1 3I6       0.035700
     26 H142         1.7900     0.8840    -0.5110 h1         1 3I6       0.035700
     27 H13          3.0200     0.0890     1.4430 h1         1 3I6       0.077700
     28 H151         1.4340     2.0820     1.6080 hc         1 3I6       0.050033
     29 H152         1.8430     1.3080     3.1450 hc         1 3I6       0.050033
     30 H153         0.2790     0.9890     2.3820 hc         1 3I6       0.050033
     31 H9           0.7710    -1.7760     1.7530 hn         1 3I6       0.479800
     32 H7           2.4350    -4.2780     5.3830 h4         1 3I6       0.049100
     33 H1           5.3610     0.0960     4.6630 hn         1 3I6       0.481800
     34 H3           5.7090    -3.3510     5.4560 ha         1 3I6       0.178000
     35 HA           6.4380     0.6100     6.9100 ha         1 3I6       0.178000
     36 H4           7.1630    -4.2620     7.2260 ha         1 3I6       0.154500
     37 H6           7.8900    -0.3110     8.6750 ha         1 3I6       0.154500
     38 H41N        10.2050    -3.6400     7.9000 hn         1 3I6       0.489467
     39 H42N        10.8090    -3.4210     9.4020 hn         1 3I6       0.489467
     40 H43         10.4810    -2.1280     8.4580 hn         1 3I6       0.489467
@<TRIPOS>BOND
     1     1     2 1   
     2     2     3 1   
     3     3     4 1   
     4     3     5 1   
     5     5     6 1   
     6     6     7 ar  
     7     6     8 ar  
     8     7    12 ar  
     9     8     9 1   
    10     8    10 ar  
    11    10    11 ar  
    12    11    12 ar  
    13    12    13 1   
    14    13    14 1   
    15    14    15 ar  
    16    14    17 ar  
    17    15    16 ar  
    18    16    19 ar  
    19    17    18 ar  
    20    18    19 ar  
    21    19    20 1   
    22    20    21 2   
    23    20    22 2   
    24    20    23 1   
    25     1    24 1   
    26     2    25 1   
    27     2    26 1   
    28     3    27 1   
    29     4    28 1   
    30     4    29 1   
    31     4    30 1   
    32     5    31 1   
    33    10    32 1   
    34    13    33 1   
    35    15    34 1   
    36    17    35 1   
    37    16    36 1   
    38    18    37 1   
    39    23    38 1   
    40    23    39 1   
    41    40    23 1   
@<TRIPOS>SUBSTRUCTURE
     1 3I6         1 TEMP              0 ****  ****    0 ROOT
