@<TRIPOS>MOLECULE
3I7
   46    48     1     0     0
SMALL
bcc


@<TRIPOS>ATOM
      1 N1           0.0000     0.0000     0.0000 nz         1 3I7       0.089400
      2 C2           1.4680     0.0000     0.0000 c3         1 3I7      -0.050200
      3 C3           1.9780     0.0000     1.4420 c3         1 3I7      -0.043400
      4 C4           3.5090    -0.0000     1.4420 c3         1 3I7       0.208400
      5 O5           3.9850    -0.0010     2.7890 os         1 3I7      -0.255900
      6 C6           5.3300    -0.0010     2.9670 ca         1 3I7       0.208100
      7 C7           6.1760    -0.0000     1.8720 ca         1 3I7      -0.244000
      8 C8           7.5560    -0.0000     2.0620 ca         1 3I7       0.117000
      9 C9           8.0860     0.0000     3.3540 ca         1 3I7      -0.150000
     10 C10          7.2570    -0.0000     4.4390 ca         1 3I7      -0.026000
     11 C11          5.8700     0.0050     4.2630 ca         1 3I7      -0.209600
     12 C12          4.9780     0.0100     5.4350 c          1 3I7       0.595700
     13 O13          3.7710     0.0110     5.2800 o          1 3I7      -0.653100
     14 N14          5.4970     0.0160     6.6780 ns         1 3I7      -0.024100
     15 C15          4.6540     0.1190     7.7890 ca         1 3I7      -0.100400
     16 C16          3.4010    -0.4810     7.7690 ca         1 3I7      -0.116500
     17 C17          2.5700    -0.3760     8.8680 ca         1 3I7      -0.083000
     18 C18          2.9840     0.3230     9.9850 ca         1 3I7      -0.106000
     19 C19          4.2310     0.9220    10.0080 ca         1 3I7      -0.083000
     20 C20          5.0690     0.8170     8.9160 ca         1 3I7      -0.116500
     21 C21          8.4640     0.0010     0.8900 cc         1 3I7      -0.301300
     22 C22          8.0750     0.0010    -0.4650 cc         1 3I7       0.410200
     23 N23          9.1580     0.0010    -1.1970 nd         1 3I7      -0.652800
     24 N24         10.2710     0.0020    -0.3470 na         1 3I7       0.480400
     25 C25          9.8300     0.0070     0.9260 cd         1 3I7      -0.234300
     26 HN1         -0.3340     0.8170     0.4720 hn         1 3I7       0.224467
     27 HN1A        -0.3340    -0.8170     0.4710 hn         1 3I7       0.224467
     28 HN1B        -0.3340     0.0010    -0.9440 hn         1 3I7       0.224467
     29 HN24        11.2290     0.0030    -0.6350 hn         1 3I7       0.154700
     30 H2           1.8290    -0.8840    -0.5110 hx         1 3I7       0.084200
     31 H2A          1.8290     0.8840    -0.5110 hx         1 3I7       0.084200
     32 H3           1.6170     0.8850     1.9530 hc         1 3I7       0.048200
     33 H3A          1.6170    -0.8840     1.9530 hc         1 3I7       0.048200
     34 H4           3.8700    -0.8840     0.9310 h1         1 3I7       0.009700
     35 H4A          3.8700     0.8850     0.9320 h1         1 3I7       0.009700
     36 H7           5.7660    -0.0000     0.8690 ha         1 3I7       0.119000
     37 H9           9.1600    -0.0020     3.4960 ha         1 3I7       0.117000
     38 H10          7.6750     0.0020     5.4380 ha         1 3I7       0.108000
     39 HN14         6.4850    -0.0780     6.8080 hn         1 3I7       0.172500
     40 H16          3.0760    -1.0300     6.8930 ha         1 3I7       0.122500
     41 H17          1.5930    -0.8440     8.8530 ha         1 3I7       0.105000
     42 H18          2.3290     0.4060    10.8440 ha         1 3I7       0.106000
     43 H19          4.5530     1.4680    10.8870 ha         1 3I7       0.105000
     44 H20          6.0450     1.2860     8.9340 ha         1 3I7       0.122500
     45 H22          7.0570     0.0010    -0.8340 h4         1 3I7      -0.003900
     46 H25         10.4460     0.0080     1.8170 h4         1 3I7       0.153000
@<TRIPOS>BOND
     1     1     2 1   
     2     1    26 1   
     3     1    27 1   
     4     1    28 1   
     5     2     3 1   
     6     2    30 1   
     7     2    31 1   
     8     3     4 1   
     9     3    32 1   
    10     3    33 1   
    11     4     5 1   
    12     4    34 1   
    13     4    35 1   
    14     5     6 1   
    15     6     7 ar  
    16     6    11 ar  
    17     7     8 ar  
    18     7    36 1   
    19     8     9 ar  
    20     8    21 1   
    21     9    10 ar  
    22     9    37 1   
    23    10    11 ar  
    24    10    38 1   
    25    11    12 1   
    26    12    13 2   
    27    12    14 1   
    28    14    15 1   
    29    14    39 1   
    30    15    16 ar  
    31    15    20 ar  
    32    16    17 ar  
    33    16    40 1   
    34    17    18 ar  
    35    17    41 1   
    36    18    19 ar  
    37    18    42 1   
    38    19    20 ar  
    39    19    43 1   
    40    20    44 1   
    41    21    22 1   
    42    21    25 2   
    43    22    23 2   
    44    22    45 1   
    45    23    24 1   
    46    24    25 1   
    47    24    29 1   
    48    25    46 1   
@<TRIPOS>SUBSTRUCTURE
     1 3I7         1 TEMP              0 ****  ****    0 ROOT
