@<TRIPOS>MOLECULE
molecule
   27    28     1     0     0
SMALL
bcc


@<TRIPOS>ATOM
      1 N1           0.0000     0.0000     0.0000 na         1 3IB      -0.191400
      2 C2           1.3680     0.0000     0.0000 cc         1 3IB      -0.121100
      3 C3           1.8260     0.0000     1.2610 cd         1 3IB      -0.115400
      4 C4           0.4840     0.0010     3.5260 ca         1 3IB      -0.062000
      5 C5          -0.7770     0.0010     4.0540 ca         1 3IB      -0.173000
      6 C6          -1.8890     0.0010     3.2220 ca         1 3IB      -0.116000
      7 C7          -1.7420     0.0010     1.8530 ca         1 3IB      -0.156000
      8 C8          -0.4680     0.0010     1.2950 ca         1 3IB      -0.041200
      9 C9           0.6560    -0.0050     2.1410 ca         1 3IB      -0.094800
     10 C10          3.2710    -0.0020     1.6910 c3         1 3IB      -0.019200
     11 C11          3.7600     1.4400     1.8350 c3         1 3IB      -0.059400
     12 C12          5.2270     1.4390     2.2710 c3         1 3IB      -0.185400
     13 C13          5.7110     2.8580     2.4140 c          1 3IB       0.891600
     14 O1           6.9750     3.1030     2.7890 o          1 3IB      -0.856800
     15 O2           4.9590     3.7770     2.1900 o          1 3IB      -0.856800
     16 HN1         -0.5750    -0.0000    -0.8190 hn         1 3IB       0.283700
     17 H2           1.9890    -0.0000    -0.8870 h4         1 3IB       0.165000
     18 H4           1.3470     0.0010     4.1810 ha         1 3IB       0.138000
     19 H5          -0.9100     0.0010     5.1290 ha         1 3IB       0.120000
     20 H6          -2.8820     0.0010     3.6550 ha         1 3IB       0.116000
     21 H7          -2.6150     0.0010     1.2120 ha         1 3IB       0.112000
     22 H101         3.8680    -0.5130     0.9460 hc         1 3IB       0.035700
     23 H102         3.3640    -0.5120     2.6420 hc         1 3IB       0.035700
     24 H111         3.6660     1.9510     0.8850 hc         1 3IB       0.049700
     25 H112         3.1630     1.9510     2.5800 hc         1 3IB       0.049700
     26 H121         5.3220     0.9290     3.2220 hc         1 3IB       0.025700
     27 H122         5.8250     0.9280     1.5260 hc         1 3IB       0.025700
@<TRIPOS>BOND
     1     1     2 1   
     2     1     8 1   
     3     1    16 1   
     4     2     3 2   
     5     2    17 1   
     6     3     9 1   
     7     3    10 1   
     8     4     5 ar  
     9     4     9 ar  
    10     4    18 1   
    11     5     6 ar  
    12     5    19 1   
    13     6     7 ar  
    14     6    20 1   
    15     7     8 ar  
    16     7    21 1   
    17     8     9 ar  
    18    10    11 1   
    19    10    22 1   
    20    10    23 1   
    21    11    12 1   
    22    11    24 1   
    23    11    25 1   
    24    12    13 1   
    25    12    26 1   
    26    12    27 1   
    27    13    14 1   
    28    13    15 1   
@<TRIPOS>SUBSTRUCTURE
     1 3IB         1 TEMP              0 ****  ****    0 ROOT
