@<TRIPOS>MOLECULE
3ID
   18    19     1     0     0
SMALL
bcc


@<TRIPOS>ATOM
      1 N1         -0.0340    0.0350   -0.0060 na        1 3ID     -0.192400
      2 C2          1.3640    0.0060    0.0040 cc        1 3ID     -0.111100
      3 C3          1.8340    0.0260    1.3150 cd        1 3ID     -0.184200
      4 C4          0.5110    0.1060    3.5650 ca        1 3ID     -0.145000
      5 C5         -0.7790    0.1450    4.0820 ca        1 3ID      0.081100
      6 C6         -1.9190    0.1490    3.2230 ca        1 3ID      0.127100
      7 C7         -1.7830    0.1150    1.8390 ca        1 3ID     -0.212000
      8 C8         -0.4810    0.0750    1.3160 ca        1 3ID     -0.040200
      9 C9          0.6780    0.0710    2.1800 ca        1 3ID     -0.090800
     10 O1         -1.0440    0.1820    5.4340 oh        1 3ID     -0.479100
     11 O2         -3.1440    0.1900    3.8460 oh        1 3ID     -0.474100
     12 HN1        -0.6090    0.0290   -0.8040 hn        1 3ID      0.297700
     13 H2          1.9220   -0.0280   -0.9330 h4        1 3ID      0.165000
     14 H3          2.8700    0.0120    1.6360 ha        1 3ID      0.157000
     15 H4          1.3840    0.1030    4.2310 ha        1 3ID      0.140000
     16 H7         -2.6630    0.1180    1.1850 ha        1 3ID      0.137000
     17 H1O        -0.1930    0.1760    5.8960 ho        1 3ID      0.412000
     18 H2O        -3.8250    0.1880    3.1570 ho        1 3ID      0.413000
@<TRIPOS>BOND
     1    1    2 1   
     2    1    8 1   
     3    1   12 1   
     4    2    3 2   
     5    2   13 1   
     6    3    9 1   
     7    3   14 1   
     8    4    5 ar  
     9    4    9 ar  
    10    4   15 1   
    11    5    6 ar  
    12    5   10 1   
    13    6    7 ar  
    14    6   11 1   
    15    7    8 ar  
    16    7   16 1   
    17    8    9 ar  
    18   10   17 1   
    19   11   18 1   
@<TRIPOS>SUBSTRUCTURE
     1 3ID         1 TEMP              0 ****  ****    0 ROOT
