@<TRIPOS>MOLECULE
molecule
   18    19     1     0     0
SMALL
bcc


@<TRIPOS>ATOM
      1 N1           0.0000     0.0000     0.0000 na         1 3ID      -0.185400
      2 C2           1.3690     0.0000     0.0000 cc         1 3ID      -0.099100
      3 C3           1.8250     0.0000     1.2620 cd         1 3ID      -0.197200
      4 C4           0.4870     0.0010     3.5290 ca         1 3ID      -0.106000
      5 C5          -0.7860     0.0050     4.0620 ca         1 3ID       0.064100
      6 C6          -1.9000    -0.0000     3.2220 ca         1 3ID       0.114100
      7 C7          -1.7440     0.0000     1.8500 ca         1 3ID      -0.176000
      8 C8          -0.4680    -0.0000     1.2970 ca         1 3ID      -0.032200
      9 C9           0.6540     0.0000     2.1430 ca         1 3ID      -0.100800
     10 O1          -0.9540     0.0060     5.4130 oh         1 3ID      -0.509100
     11 O2          -3.1500    -0.0000     3.7590 oh         1 3ID      -0.509100
     12 HN1         -0.5750     0.0000    -0.8190 hn         1 3ID       0.296700
     13 H2           1.9910    -0.0000    -0.8870 h4         1 3ID       0.166000
     14 H3           2.8640     0.0000     1.5710 ha         1 3ID       0.156000
     15 H4           1.3510     0.0040     4.1820 ha         1 3ID       0.143000
     16 H7          -2.6140    -0.0040     1.2050 ha         1 3ID       0.137000
     17 H1O         -0.7250     0.8530     5.7570 ho         1 3ID       0.417000
     18 H2O         -3.5440    -0.8480     3.6380 ho         1 3ID       0.420000
@<TRIPOS>BOND
     1     1     2 1   
     2     1     8 1   
     3     1    12 1   
     4     2     3 2   
     5     2    13 1   
     6     3     9 1   
     7     3    14 1   
     8     4     5 ar  
     9     4     9 ar  
    10     4    15 1   
    11     5     6 ar  
    12     5    10 1   
    13     6     7 ar  
    14     6    11 1   
    15     7     8 ar  
    16     7    16 1   
    17     8     9 ar  
    18    10    17 1   
    19    11    18 1   
@<TRIPOS>SUBSTRUCTURE
     1 3ID         1 TEMP              0 ****  ****    0 ROOT
