@<TRIPOS>MOLECULE
molecule
   55    57     1     0     0
SMALL
bcc


@<TRIPOS>ATOM
      1 C1           0.0000     0.0000     0.0000 ca         1 3IG       0.762200
      2 N1           1.3280     0.0000     0.0000 nb         1 3IG      -0.839000
      3 C2           2.0060     0.0000     1.1370 ca         1 3IG       0.978900
      4 N2           1.3980    -0.0000     2.3150 nb         1 3IG      -0.803000
      5 C3           0.0780    -0.0010     2.4020 ca         1 3IG       0.533600
      6 C4          -0.6790    -0.0060     1.2330 cp         1 3IG      -0.394600
      7 N3          -0.7040    -0.0000    -1.1910 nv         1 3IG      -1.004500
      8 N4           3.3890    -0.0010     1.0960 nv         1 3IG      -1.034500
      9 C5          -0.5980    -0.0010     3.7490 c3         1 3IG      -0.138700
     10 C6          -0.8270     1.4410     4.2050 c3         1 3IG      -0.083100
     11 C7          -2.8420    -1.1020     1.8150 ca         1 3IG      -0.124000
     12 C8          -4.2210    -1.1070     1.8600 ca         1 3IG      -0.121000
     13 C9          -4.9410    -0.0200     1.3820 ca         1 3IG       0.074100
     14 C10         -4.2600     1.0780     0.8590 ca         1 3IG       0.010600
     15 C11         -2.8790     1.0910     0.8120 ca         1 3IG      -0.147000
     16 C12         -2.1600    -0.0070     1.2860 cp         1 3IG      -0.008000
     17 O3          -6.2950    -0.0450     1.4210 os         1 3IG      -0.291900
     18 C14         -6.7820     1.2390     1.7920 c3         1 3IG       0.070800
     19 C15         -6.2730     2.2910     0.8390 c          1 3IG       0.685500
     20 N5          -4.9980     2.1790     0.3890 n          1 3IG      -0.378000
     21 C16         -4.4200     3.1550    -0.5390 c3         1 3IG       0.095000
     22 C17         -3.7550     4.2820     0.2550 c3         1 3IG       0.086000
     23 N6          -3.1770     5.2570    -0.6720 ns         1 3IG      -0.591900
     24 C13         -2.5370     6.3430    -0.1960 c          1 3IG       0.658100
     25 C19         -1.9430     7.3470    -1.1500 c3         1 3IG      -0.167100
     26 C21         -8.3120     1.2270     1.7630 c3         1 3IG      -0.093600
     27 C20         -6.3060     1.5700     3.2080 c3         1 3IG      -0.093600
     28 O4          -6.9820     3.2090     0.4860 o          1 3IG      -0.608500
     29 O1          -2.4400     6.5130     1.0010 o          1 3IG      -0.604100
     30 HN31        -1.6730    -0.2500    -1.1990 hn         1 3IG       0.445300
     31 HN32        -0.2470     0.2620    -2.0420 hn         1 3IG       0.445300
     32 HN41         3.8750     0.7270     0.6110 hn         1 3IG       0.446300
     33 HN42         3.9030    -0.7310     1.5470 hn         1 3IG       0.446300
     34 H51          0.0300    -0.5120     4.4690 hc         1 3IG       0.062200
     35 H52         -1.5510    -0.5120     3.6750 hc         1 3IG       0.062200
     36 H61         -1.8070     1.5260     4.6590 hc         1 3IG       0.040367
     37 H62         -0.7670     2.1040     3.3500 hc         1 3IG       0.040367
     38 H63         -0.0690     1.7160     4.9290 hc         1 3IG       0.040367
     39 H8          -4.7440    -1.9620     2.2720 ha         1 3IG       0.150000
     40 H11         -2.3560     1.9870     0.5000 ha         1 3IG       0.151000
     41 H161        -3.6800     2.6670    -1.1620 h1         1 3IG       0.067200
     42 H162        -5.2030     3.5670    -1.1640 h1         1 3IG       0.067200
     43 H171        -2.9720     3.8700     0.8800 h1         1 3IG       0.064700
     44 H172        -4.4950     4.7700     0.8780 h1         1 3IG       0.064700
     45 HN6         -3.2640     5.1210    -1.6600 hn         1 3IG       0.311500
     46 H191        -0.9700     7.6580    -0.7880 hc         1 3IG       0.060033
     47 H192        -2.5950     8.2090    -1.2190 hc         1 3IG       0.060033
     48 H193        -1.8360     6.8960    -2.1300 hc         1 3IG       0.060033
     49 H211        -8.6860     2.1930     2.0800 hc         1 3IG       0.056867
     50 H212        -8.6520     1.0210     0.7560 hc         1 3IG       0.056867
     51 H213        -8.6800     0.4600     2.4330 hc         1 3IG       0.056867
     52 H201        -6.3870     0.6880     3.8320 hc         1 3IG       0.056867
     53 H202        -6.9200     2.3620     3.6200 hc         1 3IG       0.056867
     54 H203        -5.2730     1.8940     3.1750 hc         1 3IG       0.056867
     55 H7          -2.2860    -1.9540     2.1880 ha         1 3IG       0.145000
@<TRIPOS>BOND
     1     1     2 ar  
     2     1     6 ar  
     3     1     7 1   
     4     2     3 ar  
     5     3     4 ar  
     6     3     8 1   
     7     4     5 ar  
     8     5     6 ar  
     9     5     9 1   
    10     6    16 1   
    11     7    30 1   
    12     7    31 1   
    13     8    32 1   
    14     8    33 1   
    15     9    10 1   
    16     9    34 1   
    17     9    35 1   
    18    10    36 1   
    19    10    37 1   
    20    10    38 1   
    21    11    12 ar  
    22    11    16 ar  
    23    11    55 1   
    24    12    13 ar  
    25    12    39 1   
    26    13    14 ar  
    27    13    17 1   
    28    14    15 ar  
    29    14    20 1   
    30    15    16 ar  
    31    15    40 1   
    32    17    18 1   
    33    18    19 1   
    34    18    26 1   
    35    18    27 1   
    36    19    20 1   
    37    19    28 2   
    38    20    21 1   
    39    21    22 1   
    40    21    41 1   
    41    21    42 1   
    42    22    23 1   
    43    22    43 1   
    44    22    44 1   
    45    23    24 1   
    46    23    45 1   
    47    24    25 1   
    48    24    29 2   
    49    25    46 1   
    50    25    47 1   
    51    25    48 1   
    52    26    49 1   
    53    26    50 1   
    54    26    51 1   
    55    27    52 1   
    56    27    53 1   
    57    27    54 1   
@<TRIPOS>SUBSTRUCTURE
     1 3IG         1 TEMP              0 ****  ****    0 ROOT
