@<TRIPOS>MOLECULE
molecule
   77    81     1     0     0
SMALL
bcc


@<TRIPOS>ATOM
      1 C1           0.0000     0.0000     0.0000 ca         1 3II      -0.030000
      2 C2           1.3980     0.0000     0.0000 ca         1 3II      -0.212600
      3 C3           2.1380     0.0010    -1.2740 c          1 3II       0.690700
      4 C4           2.0940     0.0000     1.2180 ca         1 3II       0.218100
      5 O5          -0.6800    -0.0030     3.5720 os         1 3II      -0.326900
      6 C6          -2.1070    -0.0030     3.4880 c3         1 3II       0.127700
      7 O7           2.9830    -0.8460    -1.4870 o          1 3II      -0.599100
      8 N8           1.8780     0.9420    -2.2030 n          1 3II      -0.487800
      9 C9           1.6780     3.3740    -2.1950 c3         1 3II      -0.095900
     10 C10          0.9600     2.0510    -1.9080 c3         1 3II       0.097000
     11 C11          2.5110     0.8800    -3.5280 c3         1 3II       0.097000
     12 C12          2.2210     3.3580    -3.6170 c3         1 3II       0.085200
     13 C13          3.2140     2.2150    -3.7990 c3         1 3II      -0.095900
     14 C14          1.0910     3.2390    -4.6100 c          1 3II       0.724500
     15 C15          1.3910    -0.0010     2.4110 ca         1 3II      -0.266000
     16 C16          0.0050    -0.0010     2.4000 ca         1 3II       0.194100
     17 O17          3.4510    -0.0000     1.2270 os         1 3II      -0.302900
     18 C18          4.0910    -0.0010     2.5050 c3         1 3II       0.124700
     19 C19         -0.6870     0.0060     1.1920 ca         1 3II      -0.268000
     20 N20          2.8720     4.6490    -3.9250 nh         1 3II      -0.554000
     21 N21          1.3040     4.1240    -5.6060 n          1 3II      -0.487800
     22 O22          0.1520     2.4770    -4.5270 o          1 3II      -0.619500
     23 C23          2.5540     4.8530    -5.3580 c3         1 3II       0.319200
     24 C24          4.2520     4.5750    -3.7240 ca         1 3II       0.088600
     25 C25          0.4240     4.3270    -6.7600 c3         1 3II       0.057000
     26 C26          5.1240     4.8870    -4.7590 ca         1 3II      -0.161500
     27 C27          4.7550     4.1940    -2.4860 ca         1 3II      -0.161500
     28 C28          6.1210     4.1210    -2.2910 ca         1 3II      -0.106000
     29 C29         -0.5980     5.3840    -6.4320 c          1 3II       0.631100
     30 C30          6.9870     4.4270    -3.3250 ca         1 3II      -0.145000
     31 C31          6.4880     4.8110    -4.5560 ca         1 3II      -0.106000
     32 O32         -0.5920     5.9170    -5.3420 o          1 3II      -0.582100
     33 N33         -1.5190     5.7400    -7.3490 ns         1 3II      -0.590900
     34 C34         -2.5130     6.7680    -7.0310 c3         1 3II       0.116000
     35 C35         -3.4320     6.9800    -8.2350 c3         1 3II      -0.056100
     36 C36         -4.4540     8.0370    -7.9070 ca         1 3II      -0.077300
     37 C37         -4.2770     9.3330    -8.3570 ca         1 3II      -0.106000
     38 C38         -5.2130    10.3030    -8.0550 ca         1 3II      -0.118000
     39 C39         -6.3300     9.9790    -7.3040 ca         1 3II       0.035400
     40 Cl40        -7.5060    11.1990    -6.9270 cl         1 3II      -0.095400
     41 C41         -6.5080     8.6840    -6.8550 ca         1 3II      -0.112000
     42 C42         -5.5720     7.7110    -7.1610 ca         1 3II       0.038400
     43 Cl43        -5.7950     6.0840    -6.5970 cl         1 3II      -0.092400
     44 H1          -0.5420     0.0050    -0.9380 ha         1 3II       0.147000
     45 H6          -2.4370    -0.8800     2.9450 h1         1 3II       0.043700
     46 H6A         -2.5270    -0.0170     4.4870 h1         1 3II       0.043700
     47 H6B         -2.4380     0.8890     2.9700 h1         1 3II       0.043700
     48 H9           0.9790     4.1940    -2.0860 hc         1 3II       0.067200
     49 H9A          2.4980     3.4970    -1.4980 hc         1 3II       0.067200
     50 H10          0.6710     2.0150    -0.8650 h1         1 3II       0.071450
     51 H10A         0.0820     1.9720    -2.5370 h1         1 3II       0.071450
     52 H11          1.7540     0.7090    -4.2830 h1         1 3II       0.071450
     53 H11A         3.2380     0.0770    -3.5450 h1         1 3II       0.071450
     54 H13          4.0350     2.3370    -3.1030 hc         1 3II       0.067200
     55 H13A         3.5910     2.2230    -4.8150 hc         1 3II       0.067200
     56 H15          1.9250    -0.0010     3.3540 ha         1 3II       0.152000
     57 H18          5.1660    -0.0030     2.3700 h1         1 3II       0.044367
     58 H18A         3.7980     0.8850     3.0560 h1         1 3II       0.044367
     59 H18B         3.7950    -0.8840     3.0570 h1         1 3II       0.044367
     60 H19         -1.7700     0.0060     1.1910 ha         1 3II       0.139000
     61 H23          3.3480     4.4500    -5.9750 h2         1 3II       0.058700
     62 H23A         2.4150     5.9080    -5.5610 h2         1 3II       0.058700
     63 H25         -0.0810     3.3980    -6.9970 h1         1 3II       0.075200
     64 H25A         1.0120     4.6460    -7.6120 h1         1 3II       0.075200
     65 H26          4.7350     5.1890    -5.7240 ha         1 3II       0.141500
     66 H27          4.0780     3.9550    -1.6750 ha         1 3II       0.141500
     67 H28          6.5140     3.8220    -1.3270 ha         1 3II       0.133000
     68 H30          8.0570     4.3680    -3.1690 ha         1 3II       0.132000
     69 H31          7.1690     5.0530    -5.3640 ha         1 3II       0.133000
     70 HN33        -1.5240     5.3010    -8.2490 hn         1 3II       0.309500
     71 H34         -3.1010     6.4490    -6.1790 h1         1 3II       0.062700
     72 H34A        -2.0080     7.6960    -6.7940 h1         1 3II       0.062700
     73 H35         -3.9370     6.0510    -8.4720 hc         1 3II       0.059200
     74 H35A        -2.8430     7.2990    -9.0870 hc         1 3II       0.059200
     75 H37         -3.4030     9.5870    -8.9450 ha         1 3II       0.144000
     76 H38         -5.0740    11.3180    -8.4080 ha         1 3II       0.150000
     77 H41         -7.3820     8.4290    -6.2680 ha         1 3II       0.160000
@<TRIPOS>BOND
     1     1     2 ar
     2     1    44 1
     3     2     3 1
     4     2     4 ar
     5     3     7 2
     6     4    17 1
     7     5    16 1
     8     5     6 1
     9     6    45 1
    10     6    46 1
    11     6    47 1
    12     8     3 1
    13     8    11 1
    14     9    12 1
    15     9    48 1
    16     9    49 1
    17    10     8 1
    18    10     9 1
    19    10    50 1
    20    10    51 1
    21    11    13 1
    22    11    52 1
    23    11    53 1
    24    12    20 1
    25    12    13 1
    26    13    54 1
    27    13    55 1
    28    14    12 1
    29    15     4 ar
    30    15    56 1
    31    16    15 ar
    32    17    18 1
    33    18    57 1
    34    18    58 1
    35    18    59 1
    36    19     1 ar
    37    19    16 ar
    38    19    60 1
    39    20    24 1
    40    21    14 1
    41    21    23 1
    42    22    14 2
    43    23    20 1
    44    23    61 1
    45    23    62 1
    46    24    26 ar
    47    24    27 ar
    48    25    21 1
    49    25    29 1
    50    25    63 1
    51    25    64 1
    52    26    31 ar
    53    26    65 1
    54    27    28 ar
    55    27    66 1
    56    28    30 ar
    57    28    67 1
    58    29    32 2
    59    30    68 1
    60    31    30 ar
    61    31    69 1
    62    33    29 1
    63    33    34 1
    64    33    70 1
    65    34    71 1
    66    34    72 1
    67    35    34 1
    68    35    73 1
    69    35    74 1
    70    36    35 1
    71    36    37 ar
    72    37    75 1
    73    38    37 ar
    74    38    76 1
    75    39    38 ar
    76    40    39 1
    77    41    39 ar
    78    41    42 ar
    79    41    77 1
    80    42    36 ar
    81    43    42 1
@<TRIPOS>SUBSTRUCTURE
     1 3II         1 TEMP              0 ****  ****    0 ROOT
