@<TRIPOS>MOLECULE
3IL
   25    26     1     0     0
SMALL
bcc


@<TRIPOS>ATOM
      1 N1          0.0290    0.5160   -0.0480 na        1 3IL     -0.193400
      2 C2          1.4320    0.3390   -0.0010 cc        1 3IL     -0.156100
      3 C3          1.8530    0.0450    1.2900 cd        1 3IL     -0.067400
      4 C4          0.4270   -0.3490    3.4490 ca        1 3IL     -0.061000
      5 C5         -0.8830   -0.3750    3.9160 ca        1 3IL     -0.178000
      6 C6         -1.9660   -0.1190    3.0620 ca        1 3IL     -0.125000
      7 C7         -1.7810    0.1680    1.7150 ca        1 3IL     -0.164000
      8 C8         -0.4680    0.1980    1.2290 ca        1 3IL     -0.063200
      9 C9          0.6520   -0.0590    2.1060 ca        1 3IL     -0.081800
     10 C10         5.1010   -1.7880    1.9550 c         1 3IL      0.892600
     11 O11         5.4850   -1.8040    0.7560 o         1 3IL     -0.833800
     12 O12         5.8410   -1.9990    2.9590 o         1 3IL     -0.833800
     13 C13         3.6040   -1.4900    2.2480 c3        1 3IL      0.020100
     14 O14         3.3160   -1.5810    3.6350 oh        1 3IL     -0.653800
     15 C15         3.2460   -0.0920    1.7400 c3        1 3IL     -0.034200
     16 HN1        -0.4890    0.3100   -0.8630 hn        1 3IL      0.264700
     17 H2          2.0310    0.4790   -0.9010 h4        1 3IL      0.164000
     18 H4          1.2860   -0.5750    4.1040 ha        1 3IL      0.174000
     19 H5         -1.0780   -0.6080    4.9730 ha        1 3IL      0.117000
     20 H6         -2.9880   -0.1530    3.4680 ha        1 3IL      0.110000
     21 H7         -2.6350    0.3630    1.0560 ha        1 3IL      0.116000
     22 H13         2.9690   -2.2650    1.7420 h1        1 3IL      0.043700
     23 H14         4.1680   -1.6660    4.0960 ho        1 3IL      0.426000
     24 H151        3.9380    0.1450    0.8850 hc        1 3IL      0.058700
     25 H152        3.4390    0.6470    2.5640 hc        1 3IL      0.058700
@<TRIPOS>BOND
     1    1    2 1   
     2    1    8 1   
     3    1   16 1   
     4    2    3 2   
     5    2   17 1   
     6    3    9 1   
     7    3   15 1   
     8    4    5 ar  
     9    4    9 ar  
    10    4   18 1   
    11    5    6 ar  
    12    5   19 1   
    13    6    7 ar  
    14    6   20 1   
    15    7    8 ar  
    16    7   21 1   
    17    8    9 ar  
    18   10   11 1   
    19   10   12 1   
    20   10   13 1   
    21   13   14 1   
    22   13   15 1   
    23   13   22 1   
    24   14   23 1   
    25   15   24 1   
    26   15   25 1   
@<TRIPOS>SUBSTRUCTURE
     1 3IL         1 TEMP              0 ****  ****    0 ROOT
