@<TRIPOS>MOLECULE
molecule
   25    26     1     0     0
SMALL
bcc


@<TRIPOS>ATOM
      1 N1           0.0000     0.0000     0.0000 na         1 3IL      -0.195400
      2 C2           1.3680     0.0000     0.0000 cc         1 3IL      -0.136100
      3 C3           1.8260     0.0000     1.2620 cd         1 3IL      -0.105400
      4 C4           0.4820    -0.0040     3.5280 ca         1 3IL      -0.044000
      5 C5          -0.7780    -0.0050     4.0540 ca         1 3IL      -0.184000
      6 C6          -1.8890    -0.0060     3.2230 ca         1 3IL      -0.118000
      7 C7          -1.7420    -0.0040     1.8530 ca         1 3IL      -0.165000
      8 C8          -0.4680    -0.0020     1.2940 ca         1 3IL      -0.047200
      9 C9           0.6550    -0.0080     2.1420 ca         1 3IL      -0.085800
     10 C10          5.1990    -1.4500     2.2660 c          1 3IL       0.865600
     11 O11          6.0860    -1.0880     1.3250 o          1 3IL      -0.843300
     12 O12          5.5840    -1.7850     3.3600 o          1 3IL      -0.843300
     13 C13          3.7250    -1.4370     1.9560 c3         1 3IL       0.045100
     14 O14          3.0000    -1.9690     3.0670 oh         1 3IL      -0.616800
     15 C15          3.2710    -0.0010     1.6910 c3         1 3IL       0.008800
     16 HN1         -0.5750     0.0000    -0.8190 hn         1 3IL       0.279700
     17 H2           1.9900     0.0010    -0.8870 h4         1 3IL       0.165000
     18 H4           1.3450    -0.0030     4.1830 ha         1 3IL       0.153000
     19 H5          -0.9110    -0.0070     5.1290 ha         1 3IL       0.117000
     20 H6          -2.8820    -0.0070     3.6550 ha         1 3IL       0.111000
     21 H7          -2.6150    -0.0040     1.2120 ha         1 3IL       0.108000
     22 H13          3.5350    -2.0430     1.0780 h1         1 3IL       0.016700
     23 H14          3.0930    -2.9070     3.0840 ho         1 3IL       0.391000
     24 H151         3.8800     0.4320     0.9070 hc         1 3IL       0.062700
     25 H152         3.3790     0.5840     2.5960 hc         1 3IL       0.062700
@<TRIPOS>BOND
     1     1     2 1   
     2     1     8 1   
     3     1    16 1   
     4     2     3 2   
     5     2    17 1   
     6     3     9 1   
     7     3    15 1   
     8     4     5 ar  
     9     4     9 ar  
    10     4    18 1   
    11     5     6 ar  
    12     5    19 1   
    13     6     7 ar  
    14     6    20 1   
    15     7     8 ar  
    16     7    21 1   
    17     8     9 ar  
    18    10    11 1   
    19    10    12 1   
    20    10    13 1   
    21    13    14 1   
    22    13    15 1   
    23    13    22 1   
    24    14    23 1   
    25    15    24 1   
    26    15    25 1   
@<TRIPOS>SUBSTRUCTURE
     1 3IL         1 TEMP              0 ****  ****    0 ROOT
