@<TRIPOS>MOLECULE
molecule
   23    24     1     0     0
SMALL
bcc


@<TRIPOS>ATOM
      1 CAO          0.0000     0.0000     0.0000 ca         1 3IO      -0.083800
      2 CAG          1.3960     0.0000     0.0000 ca         1 3IO      -0.059000
      3 CAE          2.0750     0.0000     1.1860 ca         1 3IO      -0.175000
      4 CAD          1.3870     0.0070     2.3910 ca         1 3IO      -0.119000
      5 CAF          0.0090     0.0130     2.4150 ca         1 3IO      -0.158000
      6 CAN         -0.7020     0.0130     1.2200 ca         1 3IO      -0.041200
      7 NAJ         -2.0440     0.0180     0.9150 na         1 3IO      -0.191400
      8 CAH         -2.2140     0.0150    -0.4420 cc         1 3IO      -0.118100
      9 CAM         -1.0190     0.0070    -1.0530 cd         1 3IO      -0.103400
     10 CAI         -0.7720     0.0010    -2.5400 c3         1 3IO      -0.119200
     11 CAL         -0.5730    -1.4170    -3.0090 c          1 3IO       0.468100
     12 OAB         -0.6270    -2.3290    -2.2180 o          1 3IO      -0.533100
     13 CAK         -0.3100    -1.6950    -4.4500 c          1 3IO       0.806600
     14 OAC         -0.1330    -2.9610    -4.8700 o          1 3IO      -0.815300
     15 OAA         -0.2570    -0.7800    -5.2440 o          1 3IO      -0.815300
     16 HAG          1.9390    -0.0060    -0.9370 ha         1 3IO       0.139000
     17 HAE          3.1580    -0.0050     1.1850 ha         1 3IO       0.118000
     18 HAD          1.9390     0.0070     3.3230 ha         1 3IO       0.113000
     19 HAF         -0.5180     0.0190     3.3610 ha         1 3IO       0.110000
     20 HNAJ        -2.7860     0.0240     1.5870 hn         1 3IO       0.281700
     21 HAH         -3.1710     0.0180    -0.9490 h4         1 3IO       0.162000
     22 HAI1         0.1150     0.5820    -2.7610 hc         1 3IO       0.067200
     23 HAI2        -1.6240     0.4340    -3.0490 hc         1 3IO       0.067200
@<TRIPOS>BOND
     1     1     2 ar
     2     1     6 ar
     3     1     9 1
     4     2     3 ar
     5     2    16 1
     6     3     4 ar
     7     3    17 1
     8     4     5 ar
     9     4    18 1
    10     5     6 ar
    11     5    19 1
    12     6     7 1
    13     7     8 1
    14     7    20 1
    15     8     9 2
    16     8    21 1
    17     9    10 1
    18    10    11 1
    19    10    22 1
    20    10    23 1
    21    11    12 2
    22    11    13 1
    23    13    14 1
    24    13    15 1
@<TRIPOS>SUBSTRUCTURE
     1 3IO         1 TEMP              0 ****  ****    0 ROOT
