@<TRIPOS>MOLECULE
molecule
   27    28     1     0     0
SMALL
bcc


@<TRIPOS>ATOM
      1 N1           0.0000     0.0000     0.0000 nv         1 3IP      -1.070500
      2 C2           1.3920     0.0000     0.0000 ca         1 3IP       0.654200
      3 N3           2.0490     0.0000     1.1490 nb         1 3IP      -0.680000
      4 C4           3.3670    -0.0020     1.1940 ca         1 3IP       0.391200
      5 C5           4.1170    -0.0010     0.0350 ca         1 3IP      -0.225300
      6 C6           3.4700    -0.0010    -1.1940 ca         1 3IP      -0.193000
      7 C7           2.0840    -0.0060    -1.2110 ca         1 3IP      -0.008200
      8 O8           1.4090    -0.0060    -2.3920 os         1 3IP      -0.272900
      9 C9           2.3910     0.0000    -3.4290 c3         1 3IP       0.159700
     10 C10          1.7040     0.0000    -4.7700 ca         1 3IP      -0.098300
     11 C11          1.3840     1.1970    -5.3820 ca         1 3IP      -0.104000
     12 C12          0.7560     1.1980    -6.6130 ca         1 3IP      -0.131000
     13 C13          0.4460     0.0020    -7.2310 ca         1 3IP      -0.118000
     14 C14          0.7670    -1.1950    -6.6190 ca         1 3IP      -0.131000
     15 C15          1.4000    -1.1960    -5.3910 ca         1 3IP      -0.104000
     16 H1N1        -0.5000    -0.8670     0.0200 hn         1 3IP       0.435800
     17 H1N2        -0.5000     0.8670     0.0180 hn         1 3IP       0.435800
     18 H4           3.8690    -0.0020     2.1540 h4         1 3IP       0.023100
     19 H5           5.1990     0.0010     0.0840 ha         1 3IP       0.137000
     20 H6           4.0360    -0.0030    -2.1170 ha         1 3IP       0.147000
     21 H9C1         3.0060     0.8870    -3.3380 h1         1 3IP       0.045700
     22 H9C2         3.0140    -0.8820    -3.3420 h1         1 3IP       0.045700
     23 H11          1.6270     2.1350    -4.8980 ha         1 3IP       0.133000
     24 H12          0.5050     2.1360    -7.0930 ha         1 3IP       0.132000
     25 H13         -0.0480     0.0020    -8.1950 ha         1 3IP       0.131000
     26 H14          0.5260    -2.1330    -7.1050 ha         1 3IP       0.132000
     27 H15          1.6510    -2.1340    -4.9110 ha         1 3IP       0.133000
@<TRIPOS>BOND
     1     1     2 1
     2     1    16 1
     3     1    17 1
     4     2     3 ar
     5     2     7 ar
     6     3     4 ar
     7     4     5 ar
     8     4    18 1
     9     5     6 ar
    10     5    19 1
    11     6     7 ar
    12     6    20 1
    13     7     8 1
    14     8     9 1
    15     9    10 1
    16     9    21 1
    17     9    22 1
    18    10    11 ar
    19    10    15 ar
    20    11    12 ar
    21    11    23 1
    22    12    13 ar
    23    12    24 1
    24    13    14 ar
    25    13    25 1
    26    14    15 ar
    27    14    26 1
    28    15    27 1
@<TRIPOS>SUBSTRUCTURE
     1 3IP         1 TEMP              0 ****  ****    0 ROOT
