@<TRIPOS>MOLECULE
3IT
   22    22     1     0     0
SMALL
bcc


@<TRIPOS>ATOM
      1 CAB        -0.0380    0.0830    0.0320 c2        1 3IT     -0.179000
      2 CAI         1.2980    0.0040    0.0270 ce        1 3IT     -0.090200
      3 CAA         2.0740   -0.1740    1.2820 c3        1 3IT     -0.057900
      4 CAK         2.0820    0.0820   -1.2220 cc        1 3IT     -0.050000
      5 CAG         3.0330   -0.9760   -1.3980 cc        1 3IT     -0.062000
      6 CAE         3.7730   -1.3100   -2.4770 cd        1 3IT     -0.165000
      7 CAF         3.8220   -0.6780   -3.7530 cd        1 3IT     -0.044000
      8 CAH         3.3070    0.5080   -4.1270 cc        1 3IT     -0.235200
      9 CAL         2.5560    1.4730   -3.3480 c         1 3IT      0.542500
     10 OAC         2.4120    2.6420   -3.7660 o         1 3IT     -0.577100
     11 CAJ         1.8630    1.1220   -2.0870 cd        1 3IT      0.048900
     12 OAD         0.8630    2.0040   -1.7330 oh        1 3IT     -0.499100
     13 H1         -0.6210    0.0220    0.9590 ha        1 3IT      0.120500
     14 H2         -0.6200    0.2320   -0.8870 ha        1 3IT      0.120500
     15 H5          1.5400    0.2980    2.1440 hc        1 3IT      0.043367
     16 H6          3.0850    0.2920    1.1960 hc        1 3IT      0.043367
     17 H7          2.2040   -1.2620    1.5090 hc        1 3IT      0.043367
     18 H8          3.1430   -1.6270   -0.5050 ha        1 3IT      0.136000
     19 H9          4.4240   -2.2020   -2.3860 ha        1 3IT      0.132000
     20 H10         4.3850   -1.2480   -4.5210 ha        1 3IT      0.131000
     21 H11         3.4750    0.8500   -5.1690 ha        1 3IT      0.153000
     22 H12         0.9540    2.8140   -2.2670 ho        1 3IT      0.446000
@<TRIPOS>BOND
     1    1    2 2   
     2    1   13 1   
     3    1   14 1   
     4    2    3 1   
     5    2    4 1   
     6    3   15 1   
     7    3   16 1   
     8    3   17 1   
     9    4    5 1   
    10    4   11 2   
    11    5    6 2   
    12    5   18 1   
    13    6    7 1   
    14    6   19 1   
    15    7    8 2   
    16    7   20 1   
    17    8    9 1   
    18    8   21 1   
    19    9   10 2   
    20    9   11 1   
    21   11   12 1   
    22   12   22 1   
@<TRIPOS>SUBSTRUCTURE
     1 3IT         1 TEMP              0 ****  ****    0 ROOT
