@<TRIPOS>MOLECULE
molecule
   22    22     1     0     0
SMALL
bcc


@<TRIPOS>ATOM
      1 CAB          0.0000     0.0000     0.0000 c2         1 3IT      -0.171000
      2 CAI          1.3270     0.0000     0.0000 ce         1 3IT      -0.119200
      3 CAA          2.0810     0.0000     1.3060 c3         1 3IT      -0.047900
      4 CAK          2.0650    -0.0010    -1.2770 cd         1 3IT      -0.026000
      5 CAG          2.9180    -1.0970    -1.4900 cd         1 3IT      -0.073000
      6 CAE          3.7220    -1.3650    -2.5740 cc         1 3IT      -0.139000
      7 CAF          3.9000    -0.6230    -3.7410 cc         1 3IT      -0.066000
      8 CAH          3.3180     0.5680    -4.1060 cd         1 3IT      -0.214200
      9 CAL          2.3870     1.3460    -3.3910 c          1 3IT       0.528500
     10 OAC          2.0170     2.3750    -3.9400 o          1 3IT      -0.579100
     11 CAJ          1.8220     1.0830    -2.1210 cc         1 3IT       0.045900
     12 OAD          0.9420     2.0060    -1.6620 oh         1 3IT      -0.493100
     13 H1          -0.5420    -0.0000    -0.9380 ha         1 3IT       0.122000
     14 H2          -0.5420     0.0000     0.9380 ha         1 3IT       0.122000
     15 H5           3.1260     0.2170     1.1190 hc         1 3IT       0.043033
     16 H6           1.9920    -0.9730     1.7740 hc         1 3IT       0.043033
     17 H7           1.6660     0.7560     1.9620 hc         1 3IT       0.043033
     18 H8           2.9470    -1.8310    -0.6940 ha         1 3IT       0.136000
     19 H9           4.2980    -2.2810    -2.5130 ha         1 3IT       0.129000
     20 H10          4.5940    -1.0420    -4.4590 ha         1 3IT       0.127000
     21 H11          3.6140     0.9590    -5.0720 ha         1 3IT       0.152000
     22 H12          1.3590     2.8510    -1.6330 ho         1 3IT       0.435000
@<TRIPOS>BOND
     1     7     6 1
     2     7     8 2
     3     6     5 2
     4     8     9 1
     5     5     4 1
     6     9    10 2
     7     9    11 1
     8    11     4 2
     9    11    12 1
    10     4     2 1
    11     2     3 1
    12     2     1 2
    13     1    13 1
    14     1    14 1
    15     3    15 1
    16     3    16 1
    17     3    17 1
    18     5    18 1
    19     6    19 1
    20     7    20 1
    21     8    21 1
    22    12    22 1
@<TRIPOS>SUBSTRUCTURE
     1 3IT         1 TEMP              0 ****  ****    0 ROOT
