@<TRIPOS>MOLECULE
3J0
   58    57     1     0     0
SMALL
bcc


@<TRIPOS>ATOM
      1 C10        -0.8990   -0.4190   -0.1490 c2        1 3J0     -0.160000
      2 C13         4.3850    1.3550    4.7710 c1        1 3J0      0.015000
      3 C15        -0.8910   -0.0210    3.4610 c2        1 3J0      0.110000
      4 C20        -0.9770    0.1520    8.0200 c2        1 3J0     -0.078000
      5 C21         0.1680    0.7850    7.7140 c2        1 3J0     -0.086000
      6 C22         0.3390    2.1960    7.3820 c2        1 3J0      0.031000
      7 C24        -1.4530    3.6010    6.1010 c2        1 3J0     -0.175000
      8 C26         2.8890    2.1520    7.6780 c2        1 3J0     -0.196000
      9 O01         3.0610    0.2320   -3.0280 o         1 3J0     -0.464000
     10 C03         3.0440    1.0900   -0.8230 c2        1 3J0      0.154000
     11 O04         1.1250    1.0890   -2.2050 o         1 3J0     -0.464000
     12 C05         4.1100    2.0190   -0.5260 c2        1 3J0     -0.262000
     13 C06         4.3400    1.9540    0.8360 c2        1 3J0      0.003000
     14 C07         3.4170    0.9860    1.3940 c2        1 3J0     -0.153000
     15 O08         2.6370    0.4720    0.2980 os        1 3J0     -0.046000
     16 C09         3.1540    0.5250    2.6440 c2        1 3J0      0.199000
     17 C11        -1.2640   -0.0710    1.0430 c1        1 3J0     -0.059000
     18 C12        -1.6430    0.3040    2.2400 c2        1 3J0     -0.202000
     19 C14         3.8310    0.9750    3.7690 c1        1 3J0     -0.325000
     20 N16        -1.2390    0.6540    4.5850 n         1 3J0     -0.341000
     21 S17         0.2730   -1.1360    3.4730 s         1 3J0     -0.316000
     22 C18        -3.3600    1.1680    8.2380 c1        1 3J0     -0.207000
     23 C19        -2.2540    0.7210    8.1210 c1        1 3J0     -0.129000
     24 C23        -0.5740    2.8970    6.7420 c1        1 3J0     -0.137000
     25 C25         1.6330    2.7600    7.7390 c2        1 3J0     -0.055000
     26 C27         3.8440    3.1790    8.0850 c2        1 3J0     -0.126000
     27 N28         3.1930    4.3240    8.3740 n2        1 3J0     -0.047000
     28 N29         1.8730    4.1160    8.1100 na        1 3J0     -0.098000
     29 C30         0.8800    4.9730    8.6680 c2        1 3J0     -0.210000
     30 C31         0.0900    4.5070    9.8120 c2        1 3J0     -0.046000
     31 C32        -1.0230    5.1560   10.2110 c2        1 3J0     -0.129000
     32 C33        -1.5080    6.3500    9.5250 c2        1 3J0     -0.065000
     33 C34        -0.8220    7.5020    9.4750 c2        1 3J0     -0.159000
     34 C35         0.7040    6.2250    8.1830 c1        1 3J0      0.226000
     35 CL6        -3.0160    6.1850    8.7400 cl        1 3J0     -0.021000
     36 CL7        -1.9390    4.6170   11.5350 cl        1 3J0      0.001000
     37 C38         5.3480    2.9460    8.1620 c2        1 3J0      0.401000
     38 O39         5.9600    3.3250    9.1850 o         1 3J0     -0.540500
     39 O40         5.8720    2.3430    7.1780 o         1 3J0     -0.540500
     40 H1         -1.2100   -1.3740   -0.6000 ha        1 3J0      0.177500
     41 H2         -2.5730    0.8920    2.3510 ha        1 3J0      0.136000
     42 H3         -0.9450   -0.9340    8.2440 ha        1 3J0      0.144000
     43 H4          1.1130    0.2060    7.7190 ha        1 3J0      0.153000
     44 H5         -2.2250    4.1900    6.6200 ha        1 3J0      0.134000
     45 H6          3.1500    1.1480    7.3650 ha        1 3J0      0.167000
     46 H8          5.0680    2.5080    1.4320 ha        1 3J0      0.188000
     47 H9          4.6140    2.6300   -1.2740 ha        1 3J0      0.190000
     48 H10        -0.2450    0.2120   -0.7860 ha        1 3J0      0.177500
     49 H11         2.3400   -0.2350    2.7970 ha        1 3J0      0.215000
     50 H12         4.8810    1.7100    5.6750 ha        1 3J0      0.321000
     51 H13        -0.7520    0.4790    5.4380 hn        1 3J0      0.237500
     52 H14        -4.3330    1.5710    8.3440 ha        1 3J0      0.221000
     53 H15        -1.4660    3.6670    5.0030 ha        1 3J0      0.134000
     54 H16         0.4530    3.6050   10.3360 ha        1 3J0      0.173000
     55 H17         0.1140    7.6460   10.0390 ha        1 3J0      0.148500
     56 H18        -1.1670    8.3730    8.9020 ha        1 3J0      0.148500
     57 H162       -1.9250    1.3690    4.5780 hn        1 3J0      0.237500
     58 C02         2.3270    0.7580   -2.1730 c2        1 3J0      0.395000
@<TRIPOS>BOND
     1    1   17 1
     2    1   40 1
     3    1   48 1
     4    2   19 1
     5    2   50 1
     6    3   18 1
     7    3   20 1
     8    3   21 1
     9    4    5 1
    10    4   23 1
    11    4   42 1
    12    5    6 1
    13    5   43 1
    14    6   24 1
    15    6   25 1
    16    7   24 1
    17    7   44 1
    18    7   53 1
    19    8   25 1
    20    8   26 1
    21    8   45 1
    22    9   58 1
    23   10   12 1
    24   10   15 1
    25   10   58 1
    26   11   58 1
    27   12   13 1
    28   12   47 1
    29   13   14 1
    30   13   46 1
    31   14   15 1
    32   14   16 1
    33   16   19 1
    34   16   49 1
    35   17   18 1
    36   18   41 1
    37   20   51 1
    38   20   57 1
    39   22   23 1
    40   22   52 1
    41   25   28 1
    42   26   27 1
    43   26   37 1
    44   27   28 1
    45   28   29 1
    46   29   30 1
    47   29   34 1
    48   30   31 1
    49   30   54 1
    50   31   32 1
    51   31   36 1
    52   32   33 1
    53   32   35 1
    54   33   55 1
    55   33   56 1
    56   37   38 1
    57   37   39 1
@<TRIPOS>SUBSTRUCTURE
     1 3J0         1 TEMP              0 ****  ****    0 ROOT
