@<TRIPOS>MOLECULE
3J1
   41    44     1     0     0
SMALL
bcc


@<TRIPOS>ATOM
      1 C1         -0.0160    0.2840    0.1170 cc        1 3J1     -0.120300
      2 C2          1.3220   -0.1380   -0.0260 cd        1 3J1     -0.227300
      3 C3          1.6730   -0.6540    1.2860 cd        1 3J1      0.317200
      4 C7          3.7870    0.0500   -3.4760 ca        1 3J1     -0.161900
      5 C8          4.2040   -0.6750   -2.3530 ca        1 3J1     -0.087500
      6 C9          3.3940   -0.7370   -1.2240 ca        1 3J1     -0.138000
      7 C10         4.6490    0.1190   -4.6860 cc        1 3J1      0.550500
      8 C11         6.9000    0.5120   -5.5400 c         1 3J1      0.708100
      9 C12         6.3350    0.2760   -6.8810 ca        1 3J1     -0.190600
     10 C13         7.1600    0.3480   -8.0090 ca        1 3J1     -0.061000
     11 C14         6.6230    0.1240   -9.2680 ca        1 3J1     -0.154000
     12 C15         5.2620   -0.1740   -9.4080 ca        1 3J1     -0.070000
     13 C16         4.4210   -0.2510   -8.3030 ca        1 3J1     -0.080300
     14 O           8.0910    0.7810   -5.3010 o         1 3J1     -0.625500
     15 N2          6.0000    0.4190   -4.4660 n         1 3J1     -0.493400
     16 C17         4.9510   -0.0220   -7.0020 ca        1 3J1      0.182400
     17 C18         2.9700   -0.5730   -8.4500 c3        1 3J1      0.182700
     18 O1          2.6670   -0.7580   -9.8280 oh        1 3J1     -0.609800
     19 N3          4.1170   -0.0960   -5.8790 nd        1 3J1     -0.627100
     20 C6          2.5510    0.7030   -3.4630 ca        1 3J1     -0.087500
     21 C5          1.7440    0.6420   -2.3290 ca        1 3J1     -0.138000
     22 C4          2.1540   -0.0760   -1.1940 ca        1 3J1      0.043000
     23 N1          0.6230   -0.5430    2.1340 nc        1 3J1     -0.505800
     24 N          -0.3850    0.0150    1.4380 na        1 3J1      0.090400
     25 C          -1.6860    0.2920    1.9960 c3        1 3J1      0.038600
     26 H1         -0.7020    0.7330   -0.6000 h4        1 3J1      0.178000
     27 H2          2.6270   -1.0760    1.6030 h4        1 3J1      0.046100
     28 H3          5.1630   -1.2150   -2.3600 ha        1 3J1      0.144500
     29 H4          3.7250   -1.3150   -0.3480 ha        1 3J1      0.137000
     30 H5          8.2290    0.5820   -7.8750 ha        1 3J1      0.158000
     31 H6          7.2630    0.1780  -10.1600 ha        1 3J1      0.141000
     32 H7          4.8430   -0.3520  -10.4130 ha        1 3J1      0.160000
     33 H8          6.3260    0.5810   -3.5400 hn        1 3J1      0.339500
     34 H9          2.7280   -1.5130   -7.8810 h1        1 3J1      0.045200
     35 H10         2.3480    0.2720   -8.0420 h1        1 3J1      0.045200
     36 H11         1.7350   -1.0020   -9.8650 ho        1 3J1      0.405000
     37 H12         2.2130    1.2640   -4.3480 ha        1 3J1      0.144500
     38 H13         0.7760    1.1650   -2.3250 ha        1 3J1      0.137000
     39 H14        -1.5880    0.9800    2.8780 h1        1 3J1      0.060700
     40 H15        -2.3190    0.7780    1.2090 h1        1 3J1      0.060700
     41 H16        -2.1710   -0.6630    2.3330 h1        1 3J1      0.060700
@<TRIPOS>BOND
     1    1    2 2
     2    1   24 1
     3    1   26 1
     4    2    3 1
     5    2   22 1
     6    3   23 2
     7    3   27 1
     8    4    5 ar
     9    4    7 1
    10    4   20 ar
    11    5    6 ar
    12    5   28 1
    13    6   22 ar
    14    6   29 1
    15    7   15 1
    16    7   19 2
    17    8    9 1
    18    8   14 2
    19    8   15 1
    20    9   10 ar
    21    9   16 ar
    22   10   11 ar
    23   10   30 1
    24   11   12 ar
    25   11   31 1
    26   12   13 ar
    27   12   32 1
    28   13   16 ar
    29   13   17 1
    30   15   33 1
    31   16   19 1
    32   17   18 1
    33   17   34 1
    34   17   35 1
    35   18   36 1
    36   20   21 ar
    37   20   37 1
    38   21   22 ar
    39   21   38 1
    40   23   24 1
    41   24   25 1
    42   25   39 1
    43   25   40 1
    44   25   41 1
@<TRIPOS>SUBSTRUCTURE
     1 3J1         1 TEMP              0 ****  ****    0 ROOT
