@<TRIPOS>MOLECULE
molecule
   48    52     1     0     0
SMALL
bcc


@<TRIPOS>ATOM
      1 C1           0.0000     0.0000     0.0000 c3         1 3J2      -0.031500
      2 C2           1.5300     0.0000     0.0000 c3         1 3J2      -0.087100
      3 C3          -0.5020     0.0000     1.4210 cc         1 3J2       0.181900
      4 C4          -1.1450    -1.0970     1.8850 cd         1 3J2      -0.225200
      5 C5          -1.3890    -2.2490     0.9540 c3         1 3J2       0.230300
      6 C6          -2.1710    -3.3900     1.5170 c3         1 3J2       0.118100
      7 C7          -3.0690    -3.0060     2.6960 c3         1 3J2      -0.078700
      8 C8          -3.4690    -4.4030     3.1660 c3         1 3J2      -0.180000
      9 O1          -0.2940     1.0800     2.1760 os         1 3J2      -0.277200
     10 O3          -3.8500    -5.6990     5.0950 oh         1 3J2      -0.566800
     11 O5          -1.4620    -4.5570     1.9990 os         1 3J2      -0.393900
     12 O6          -0.1220    -2.7500     0.5210 oh         1 3J2      -0.587800
     13 C17         -2.2050    -5.1850     2.9610 c          1 3J2       0.766600
     14 C18         -4.4410    -4.9290     2.1090 c3         1 3J2      -0.094100
     15 C9          -4.1870    -4.4620     4.4630 c3         1 3J2       0.197100
     16 C10         -3.9180    -3.3460     5.4490 cx         1 3J2       0.033100
     17 O2          -2.6620    -3.1620     6.0740 op         1 3J2      -0.338600
     18 C11         -2.9840    -2.2010     5.0530 cx         1 3J2       0.051100
     19 C12         -2.2090    -2.3490     3.7570 c3         1 3J2      -0.012800
     20 C16         -1.0580    -3.3150     4.0430 c3         1 3J2      -0.125100
     21 C13         -1.5830    -1.1060     3.2210 cd         1 3J2       0.052800
     22 C14         -1.4180     0.0060     3.9860 cc         1 3J2      -0.294200
     23 C15         -0.7610     1.1180     3.4310 c          1 3J2       0.726800
     24 O           -0.6270     2.1330     4.0930 o          1 3J2      -0.584500
     25 C           -0.5090     1.2500    -0.7210 c3         1 3J2      -0.087100
     26 H1          -0.3610    -0.8840    -0.5110 hc         1 3J2       0.076700
     27 H2           1.8910    -0.6530     0.7850 hc         1 3J2       0.046200
     28 H3           1.8910    -0.3540    -0.9580 hc         1 3J2       0.046200
     29 H4           1.8910     1.0070     0.1730 hc         1 3J2       0.046200
     30 H5          -1.9230    -1.8730     0.0890 h1         1 3J2       0.044700
     31 H6          -2.8240    -3.7310     0.7230 h1         1 3J2       0.048700
     32 H7          -3.9180    -2.4030     2.3980 hc         1 3J2       0.085700
     33 H8          -4.6170    -6.0600     5.5080 ho         1 3J2       0.402000
     34 H9          -0.2420    -3.2980    -0.2370 ho         1 3J2       0.409000
     35 H10         -5.1680    -5.5800     2.5800 hc         1 3J2       0.048700
     36 H11         -3.8920    -5.4840     1.3580 hc         1 3J2       0.048700
     37 H12         -4.9520    -4.0960     1.6410 hc         1 3J2       0.048700
     38 H13         -5.2500    -4.4670     4.2520 h1         1 3J2       0.045700
     39 H14         -4.7600    -3.0190     6.0480 h1         1 3J2       0.088700
     40 H15         -3.2520    -1.2160     5.4170 h1         1 3J2       0.104700
     41 H16         -0.4680    -3.4510     3.1440 hc         1 3J2       0.074033
     42 H17         -1.4580    -4.2710     4.3600 hc         1 3J2       0.074033
     43 H18         -0.4310    -2.9090     4.8270 hc         1 3J2       0.074033
     44 H19         -1.7950     0.0390     5.0010 ha         1 3J2       0.175000
     45 H20         -1.5660     1.3770    -0.5220 hc         1 3J2       0.046200
     46 H21          0.0320     2.1180    -0.3650 hc         1 3J2       0.046200
     47 H22         -0.3540     1.1400    -1.7880 hc         1 3J2       0.046200
     48 O4          -1.8960    -6.1980     3.5440 o          1 3J2      -0.520500
@<TRIPOS>BOND
     1    14     8 1   
     2    24    23 2   
     3    16    18 1   
     4    16    15 1   
     5    16    17 1   
     6    25     1 1   
     7    18    17 1   
     8    18    19 1   
     9    23    22 1   
    10    23     9 1   
    11     7     8 1   
    12     7     6 1   
    13     7    19 1   
    14    22    21 2   
    15     8    15 1   
    16     8    13 1   
    17    15    10 1   
    18     9     3 1   
    19    21    19 1   
    20    21     4 1   
    21     6     5 1   
    22     6    11 1   
    23     3     4 2   
    24     3     1 1   
    25    19    20 1   
    26     4     5 1   
    27     1     2 1   
    28     5    12 1   
    29    13    11 1   
    30    13    48 2   
    31     1    26 1   
    32     2    27 1   
    33     2    28 1   
    34     2    29 1   
    35     5    30 1   
    36     6    31 1   
    37     7    32 1   
    38    10    33 1   
    39    12    34 1   
    40    14    35 1   
    41    14    36 1   
    42    14    37 1   
    43    15    38 1   
    44    16    39 1   
    45    18    40 1   
    46    20    41 1   
    47    20    42 1   
    48    20    43 1   
    49    22    44 1   
    50    25    45 1   
    51    25    46 1   
    52    25    47 1   
@<TRIPOS>SUBSTRUCTURE
     1 3J2         1 TEMP              0 ****  ****    0 ROOT
