@<TRIPOS>MOLECULE
3J2
   48    50     1     0     0
SMALL
bcc


@<TRIPOS>ATOM
      1 C1          0.0670    0.3850    0.1280 c3        1 3J2     -0.080000
      2 C2          1.3720    1.1470    0.2540 c3        1 3J2     -0.210000
      3 C3         -0.3920   -0.1350    1.4630 c2        1 3J2      0.146000
      4 C4         -0.9750   -1.3590    1.6810 c2        1 3J2     -0.212000
      5 C5         -1.2680   -2.2440    0.4980 c3        1 3J2      0.096000
      6 C6         -2.2410   -3.3310    0.9380 c3        1 3J2     -0.018000
      7 C7         -1.6810   -4.0270    2.1920 c3        1 3J2     -0.118000
      8 C8         -2.3050   -5.4260    2.1210 c3        1 3J2     -0.123000
      9 O1         -0.1710    0.7750    2.4590 os        1 3J2     -0.184000
     10 O3         -4.5800   -2.8770    7.5480 oh        1 3J2     -0.244000
     11 O5         -2.3860   -4.3720   -0.0510 os        1 3J2     -0.260000
     12 O6         -0.0420   -2.7880    0.0240 oh        1 3J2     -0.326000
     13 C17        -2.5130   -5.5850    0.6200 c2        1 3J2      0.301000
     14 C18        -3.6120   -5.5820    2.8570 c3        1 3J2     -0.217000
     15 C9         -5.4090   -2.6960    6.4790 c2        1 3J2     -0.004000
     16 C10        -5.0460   -2.7010    5.1830 c2        1 3J2     -0.168000
     17 O2         -3.6750   -2.9080    4.9060 os        1 3J2     -0.167000
     18 C11        -3.3670   -2.9120    3.6140 c1        1 3J2      0.038000
     19 C12        -1.8740   -3.1070    3.3900 c3        1 3J2     -0.083000
     20 C16        -1.1270   -3.6910    4.5840 c3        1 3J2     -0.217000
     21 C13        -1.3150   -1.7390    3.0350 c2        1 3J2      0.075000
     22 C14        -1.1210   -0.8360    4.0340 c2        1 3J2     -0.268000
     23 C15        -0.5510    0.4660    3.7690 c2        1 3J2      0.335000
     24 O          -0.3160    1.4040    4.5290 o         1 3J2     -0.293000
     25 C          -1.0100    1.2640   -0.4800 c3        1 3J2     -0.210000
     26 H1          0.2430   -0.5090   -0.5400 hc        1 3J2      0.127000
     27 H2          2.1580    0.4960    0.7070 hc        1 3J2      0.086333
     28 H3          1.7140    1.4740   -0.7570 hc        1 3J2      0.086333
     29 H4          1.2410    2.0480    0.9010 hc        1 3J2      0.086333
     30 H5         -0.5650   -4.1540    2.0570 hc        1 3J2      0.128000
     31 H6         -1.7380   -1.6350   -0.3300 h1        1 3J2      0.097000
     32 H7         -3.2620   -2.8960    1.1200 h1        1 3J2      0.143000
     33 H8         -3.6700   -2.9890    7.2300 ho        1 3J2      0.227000
     34 H9         -0.2770   -3.4540   -0.6370 ho        1 3J2      0.221000
     35 H10        -4.3490   -4.8060    2.5270 hc        1 3J2      0.096333
     36 H11        -4.0440   -6.5930    2.6610 hc        1 3J2      0.096333
     37 H12        -3.4450   -5.4700    3.9560 hc        1 3J2      0.096333
     38 H13        -1.5760   -6.2030    2.4730 hc        1 3J2      0.132000
     39 H14        -6.4480   -2.5420    6.8160 h4        1 3J2      0.185000
     40 H15        -5.6970   -2.5550    4.3160 h4        1 3J2      0.186000
     41 H16        -1.3690   -3.1290    5.5180 hc        1 3J2      0.089333
     42 H17        -1.4260   -4.7580    4.7260 hc        1 3J2      0.089333
     43 H18        -0.0240   -3.6470    4.4150 hc        1 3J2      0.089333
     44 H19        -1.3740   -1.0400    5.0850 ha        1 3J2      0.169000
     45 H20        -1.9560    0.6880   -0.6180 hc        1 3J2      0.086333
     46 H21        -0.6700    1.6370   -1.4760 hc        1 3J2      0.086333
     47 H22        -1.2150    2.1410    0.1800 hc        1 3J2      0.086333
     48 O4         -2.7450   -6.5590   -0.0810 o         1 3J2     -0.278000
@<TRIPOS>BOND
     1    1    2 1   
     2    1    3 1   
     3    1   25 1   
     4    1   26 1   
     5    2   27 1   
     6    2   28 1   
     7    2   29 1   
     8    3    4 1   
     9    3    9 1   
    10    4    5 1   
    11    4   21 1   
    12    5    6 1   
    13    5   12 1   
    14    5   31 1   
    15    6    7 1   
    16    6   11 1   
    17    6   32 1   
    18    7    8 1   
    19    7   19 1   
    20    7   30 1   
    21    8   13 1   
    22    8   14 1   
    23    8   38 1   
    24    9   23 1   
    25   10   15 1   
    26   10   33 1   
    27   11   13 1   
    28   12   34 1   
    29   13   48 1   
    30   14   35 1   
    31   14   36 1   
    32   14   37 1   
    33   15   16 1   
    34   15   39 1   
    35   16   17 1   
    36   16   40 1   
    37   17   18 1   
    38   18   19 1   
    39   19   20 1   
    40   19   21 1   
    41   20   41 1   
    42   20   42 1   
    43   20   43 1   
    44   21   22 1   
    45   22   23 1   
    46   22   44 1   
    47   23   24 1   
    48   25   45 1   
    49   25   46 1   
    50   25   47 1   
@<TRIPOS>SUBSTRUCTURE
     1 3J2         1 TEMP              0 ****  ****    0 ROOT
