@<TRIPOS>MOLECULE
molecule
   48    49     1     0     0
SMALL
bcc


@<TRIPOS>ATOM
      1 O2           0.0000     0.0000     0.0000 oh         1 3J3      -0.583800
      2 C2           1.4290     0.0000     0.0000 c3         1 3J3       0.107100
      3 C3           1.9410     0.0000     1.4440 c3         1 3J3       0.125100
      4 O3           3.3690    -0.0670     1.4450 oh         1 3J3      -0.598800
      5 C4           1.4870     1.2900     2.1350 c3         1 3J3       0.122100
      6 O4           2.0200     1.3350     3.4600 oh         1 3J3      -0.594800
      7 C5           1.9960     2.4940     1.3370 c3         1 3J3       0.137100
      8 C6           3.5260     2.4870     1.3250 c3         1 3J3       0.105400
      9 O6           4.0020     3.6880     0.7140 oh         1 3J3      -0.629800
     10 O5           1.5080     2.4150    -0.0040 os         1 3J3      -0.367600
     11 C1           1.9400     1.2530    -0.7150 c3         1 3J3       0.022900
     12 SAY          1.2810     1.2970    -2.4040 s6         1 3J3       1.342900
     13 OAD          1.8480     0.2570    -3.1880 o          1 3J3      -0.604800
     14 OAE         -0.1230     1.5190    -2.3860 o          1 3J3      -0.604800
     15 NAW          1.9050     2.6860    -3.0560 n3         1 3J3      -0.815500
     16 CAN          3.1940     2.6690    -3.7600 c3         1 3J3       0.242300
     17 CAL          3.0050     3.2850    -5.1500 c3         1 3J3      -0.103900
     18 CAM          1.1780     3.9580    -2.9440 c3         1 3J3       0.242300
     19 CAK          1.0150     4.5570    -4.3460 c3         1 3J3      -0.103900
     20 CAQ          2.3850     4.6770    -5.0060 c3         1 3J3       0.147100
     21 OAP          2.2380     5.2680    -6.2990 os         1 3J3      -0.509500
     22 SAX          2.4550     6.7740    -6.3200 s6         1 3J3       1.493400
     23 OAB          2.0770     7.2160    -7.6160 o          1 3J3      -0.528800
     24 OAC          1.8750     7.2800    -5.1250 o          1 3J3      -0.528800
     25 NAA          4.0860     7.0360    -6.1940 nz         1 3J3      -0.831500
     26 H1          -0.3140    -0.8660    -0.2010 ho         1 3J3       0.418000
     27 H2           1.7950    -0.8810    -0.5120 h1         1 3J3       0.056700
     28 H3           1.5330    -0.8540     1.9710 h1         1 3J3       0.057700
     29 H4           3.6430    -0.9330     1.6980 ho         1 3J3       0.412000
     30 H5           0.4040     1.3150     2.1730 h1         1 3J3       0.076700
     31 H6           1.3120     1.3450     4.0830 ho         1 3J3       0.412000
     32 H7           1.6380     3.4070     1.7960 h1         1 3J3       0.100700
     33 H8           3.8790     1.6320     0.7620 h1         1 3J3       0.064700
     34 H9           3.8950     2.4290     2.3420 h1         1 3J3       0.064700
     35 H10          4.7710     3.9890     1.1700 ho         1 3J3       0.404000
     36 H11          3.0230     1.2320    -0.7450 h2         1 3J3       0.103700
     37 H12          3.9200     3.2480    -3.2020 h1         1 3J3       0.077700
     38 H13          3.5380     1.6460    -3.8610 h1         1 3J3       0.077700
     39 H14          3.9670     3.3670    -5.6410 hc         1 3J3       0.079450
     40 H15          2.3470     2.6560    -5.7360 hc         1 3J3       0.079450
     41 H16          1.7390     4.6430    -2.3200 h1         1 3J3       0.077700
     42 H17          0.5650     5.5390    -4.2670 hc         1 3J3       0.079450
     43 H18          3.0280     5.2960    -4.3920 h1         1 3J3       0.030700
     44 H19          4.5780     6.3160    -6.6860 hn         1 3J3       0.496133
     45 H20          4.3130     7.9260    -6.5920 hn         1 3J3       0.496133
     46 H21          0.2010     3.7800    -2.5100 h1         1 3J3       0.077700
     47 H22          0.3830     3.9110    -4.9420 hc         1 3J3       0.079450
     48 HAA3         4.3570     7.0010    -5.2320 hn         1 3J3       0.496133
@<TRIPOS>BOND
     1     4     3 1   
     2     6     5 1   
     3     5     3 1   
     4     5     7 1   
     5     3     2 1   
     6     7     8 1   
     7     7    10 1   
     8     2     1 1   
     9     2    11 1   
    10     8     9 1   
    11    10    11 1   
    12    11    12 1   
    13    18    15 1   
    14    18    19 1   
    15    15    12 1   
    16    15    16 1   
    17    12    14 2   
    18    12    13 2   
    19    16    17 1   
    20    19    20 1   
    21    17    20 1   
    22    20    21 1   
    23    25    22 1   
    24    21    22 1   
    25    24    22 2   
    26    22    23 2   
    27     1    26 1   
    28     2    27 1   
    29     3    28 1   
    30     4    29 1   
    31     5    30 1   
    32     6    31 1   
    33     7    32 1   
    34     8    33 1   
    35     8    34 1   
    36     9    35 1   
    37    11    36 1   
    38    16    37 1   
    39    16    38 1   
    40    17    39 1   
    41    17    40 1   
    42    18    41 1   
    43    19    42 1   
    44    20    43 1   
    45    25    44 1   
    46    25    45 1   
    47    18    46 1   
    48    19    47 1   
    49    48    25 1   
@<TRIPOS>SUBSTRUCTURE
     1 3J3         1 TEMP              0 ****  ****    0 ROOT
