@<TRIPOS>MOLECULE
3J3
   48    49     1     0     0
SMALL
bcc


@<TRIPOS>ATOM
      1 O2           0.0000     0.0000     0.0000 oh         1 3J3      -0.560800
      2 C2           1.4290     0.0000     0.0000 c3         1 3J3       0.160100
      3 C3           1.9410     0.0000     1.4440 c3         1 3J3       0.154100
      4 O3           3.3690    -0.0670     1.4450 oh         1 3J3      -0.579800
      5 C4           1.4870     1.2900     2.1350 c3         1 3J3       0.155100
      6 O4           2.0200     1.3350     3.4600 oh         1 3J3      -0.573800
      7 C5           1.9960     2.4940     1.3370 c3         1 3J3       0.162100
      8 C6           3.5260     2.4870     1.3250 c3         1 3J3       0.159400
      9 O6           4.0020     3.6880     0.7140 oh         1 3J3      -0.607800
     10 O5           1.5080     2.4150    -0.0040 os         1 3J3      -0.355600
     11 C1           1.9400     1.2530    -0.7150 c3         1 3J3       0.194900
     12 SAY          1.2810     1.2970    -2.4040 s6         1 3J3       0.983900
     13 OAD          1.8480     0.2570    -3.1880 o          1 3J3      -0.565300
     14 OAE         -0.1230     1.5190    -2.3860 o          1 3J3      -0.565300
     15 NAW          1.9050     2.6860    -3.0560 n3         1 3J3      -0.550500
     16 CAN          3.1940     2.6690    -3.7600 c3         1 3J3       0.247800
     17 CAL          3.0050     3.2850    -5.1500 c3         1 3J3      -0.063900
     18 CAM          1.1780     3.9580    -2.9440 c3         1 3J3       0.247800
     19 CAK          1.0150     4.5570    -4.3460 c3         1 3J3      -0.063900
     20 CAQ          2.3850     4.6770    -5.0060 c3         1 3J3       0.218100
     21 OAP          2.2380     5.2680    -6.2990 os         1 3J3      -0.432500
     22 SAX          2.4550     6.7740    -6.3200 s6         1 3J3       1.274400
     23 OAB          2.0770     7.2160    -7.6160 o          1 3J3      -0.507800
     24 OAC          1.8750     7.2800    -5.1250 o          1 3J3      -0.507800
     25 NAA          4.0860     7.0360    -6.1940 nz         1 3J3      -0.175500
     26 H1          -0.3140    -0.8660    -0.2010 ho         1 3J3       0.403000
     27 H2           1.7950    -0.8810    -0.5120 h1         1 3J3       0.022700
     28 H3           1.5330    -0.8540     1.9710 h1         1 3J3       0.019700
     29 H4           3.6430    -0.9330     1.6980 ho         1 3J3       0.398000
     30 H5           0.4040     1.3150     2.1730 h1         1 3J3       0.037700
     31 H6           1.3120     1.3450     4.0830 ho         1 3J3       0.397000
     32 H7           1.6380     3.4070     1.7960 h1         1 3J3       0.056700
     33 H8           3.8790     1.6320     0.7620 h1         1 3J3       0.033200
     34 H9           3.8950     2.4290     2.3420 h1         1 3J3       0.033200
     35 H10          4.7710     3.9890     1.1700 ho         1 3J3       0.393000
     36 H11          3.0230     1.2320    -0.7450 h2         1 3J3       0.077700
     37 H12          3.9200     3.2480    -3.2020 h1         1 3J3       0.037200
     38 H13          3.5380     1.6460    -3.8610 h1         1 3J3       0.037200
     39 H14          3.9670     3.3670    -5.6410 hc         1 3J3       0.044200
     40 H15          2.3470     2.6560    -5.7360 hc         1 3J3       0.044200
     41 H16          1.7390     4.6430    -2.3200 h1         1 3J3       0.037200
     42 H17          0.5650     5.5390    -4.2670 hc         1 3J3       0.044200
     43 H18          3.0280     5.2960    -4.3920 h1         1 3J3      -0.010300
     44 H19          4.5780     6.3160    -6.6860 hn         1 3J3       0.321800
     45 H20          4.3130     7.9260    -6.5920 hn         1 3J3       0.321800
     46 H21          0.2010     3.7800    -2.5100 h1         1 3J3       0.037200
     47 H22          0.3830     3.9110    -4.9420 hc         1 3J3       0.044200
     48 HAA3         4.3570     7.0010    -5.2320 hn         1 3J3       0.321800
@<TRIPOS>BOND
     1     1     2 1   
     2     1    26 1   
     3     2     3 1   
     4     2    11 1   
     5     2    27 1   
     6     3     4 1   
     7     3     5 1   
     8     3    28 1   
     9     4    29 1   
    10     5     6 1   
    11     5     7 1   
    12     5    30 1   
    13     6    31 1   
    14     7     8 1   
    15     7    10 1   
    16     7    32 1   
    17     8     9 1   
    18     8    33 1   
    19     8    34 1   
    20     9    35 1   
    21    10    11 1   
    22    11    12 1   
    23    11    36 1   
    24    12    13 2   
    25    12    14 2   
    26    12    15 1   
    27    15    16 1   
    28    15    18 1   
    29    16    17 1   
    30    16    37 1   
    31    16    38 1   
    32    17    20 1   
    33    17    39 1   
    34    17    40 1   
    35    18    19 1   
    36    18    41 1   
    37    18    46 1   
    38    19    20 1   
    39    19    42 1   
    40    19    47 1   
    41    20    21 1   
    42    20    43 1   
    43    21    22 1   
    44    22    23 2   
    45    22    24 2   
    46    22    25 1   
    47    25    44 1   
    48    25    45 1   
    49    25    48 1   
@<TRIPOS>SUBSTRUCTURE
     1 3J3         1 TEMP              0 ****  ****    0 ROOT
