@<TRIPOS>MOLECULE
3J4
   45    46     1     0     0
SMALL
bcc


@<TRIPOS>ATOM
      1 C4           0.0000     0.0000     0.0000 c3         1 3J4       0.153100
      2 C5           1.5310     0.0000     0.0000 c3         1 3J4       0.153100
      3 C6           2.0410    -1.2500    -0.7200 c3         1 3J4       0.175400
      4 OAO          7.3070    -2.0360     2.9080 os         1 3J4      -0.418500
      5 SAW          8.2410    -2.1640     1.7130 s6         1 3J4       1.275400
      6 OAB          9.2910    -3.0330     2.1160 o          1 3J4      -0.507300
      7 OAC          7.4150    -2.4130     0.5840 o          1 3J4      -0.507300
      8 NAA          8.9310    -0.6770     1.4700 nz         1 3J4      -0.176500
      9 O2          -0.3970    -0.0260     2.8760 oh         1 3J4      -0.553800
     10 C2           0.0780    -1.1860     2.1930 c3         1 3J4       0.164100
     11 C3          -0.5040    -1.2210     0.7760 c3         1 3J4       0.155100
     12 O3          -1.9300    -1.1890     0.8440 oh         1 3J4      -0.564800
     13 O4          -0.4780    -0.0590    -1.3450 oh         1 3J4      -0.585800
     14 O6           3.4640    -1.1940    -0.8230 oh         1 3J4      -0.609800
     15 O5           2.0060     0.0000     1.3480 os         1 3J4      -0.356600
     16 C1           1.6060    -1.1420     2.1080 c3         1 3J4       0.185900
     17 SAX          2.3010    -1.0300     3.7790 s6         1 3J4       1.003900
     18 OAD          1.9030     0.1830     4.4050 o          1 3J4      -0.548800
     19 OAE          2.1830    -2.2750     4.4530 o          1 3J4      -0.548800
     20 NAV          3.9300    -0.8500     3.5380 n3         1 3J4      -0.565500
     21 CAM          4.9090    -1.9460     3.4310 c3         1 3J4       0.270800
     22 CAL          4.6370     0.4310     3.3890 c3         1 3J4       0.269800
     23 CAK          6.1290     0.1060     3.1570 c3         1 3J4      -0.072400
     24 CAP          6.0870    -1.3480     2.6210 c3         1 3J4       0.138100
     25 H1          -0.3600     0.9030     0.4780 h1         1 3J4       0.048700
     26 H2           1.6090    -1.2970    -1.7120 h1         1 3J4       0.015200
     27 H3           8.2950    -0.0930     0.9650 hn         1 3J4       0.323467
     28 H4           9.7760    -0.7840     0.9440 hn         1 3J4       0.323467
     29 H5          -1.0530    -0.2780     3.5060 ho         1 3J4       0.409000
     30 H6          -0.2270    -2.0770     2.7290 h1         1 3J4       0.021700
     31 H7          -0.1800    -2.1260     0.2750 h1         1 3J4       0.014700
     32 H8          -2.2760    -2.0320     0.5990 ho         1 3J4       0.398000
     33 H9          -0.9480     0.7330    -1.5470 ho         1 3J4       0.408000
     34 H10          3.7320    -1.5150    -1.6680 ho         1 3J4       0.399000
     35 H11          1.9650    -2.0410     1.6220 h2         1 3J4       0.062700
     36 H12          4.4760    -2.7860     2.9000 h1         1 3J4       0.035200
     37 H13          5.2450    -2.2480     4.4160 h1         1 3J4       0.035200
     38 H14          4.2430     0.9720     2.5380 h1         1 3J4       0.035200
     39 H15          4.5250     1.0200     4.2910 h1         1 3J4       0.035200
     40 H16          6.5540     0.7730     2.4170 hc         1 3J4       0.018200
     41 H17          6.6790     0.1540     4.0890 hc         1 3J4       0.018200
     42 H18          5.8690    -1.3600     1.5600 h1         1 3J4       0.074700
     43 H19          1.8900     0.8870    -0.5080 h1         1 3J4       0.056700
     44 H20          1.7540    -2.1320    -0.1600 h1         1 3J4       0.015200
     45 HAA3         9.1390    -0.2580     2.3550 hn         1 3J4       0.323467
@<TRIPOS>BOND
     1     1     2 1   
     2     1    11 1   
     3     1    13 1   
     4     1    25 1   
     5     2     3 1   
     6     2    15 1   
     7     2    43 1   
     8     3    14 1   
     9     3    26 1   
    10     3    44 1   
    11     4     5 1   
    12     4    24 1   
    13     5     6 2   
    14     5     7 2   
    15     5     8 1   
    16     8    27 1   
    17     8    28 1   
    18     8    45 1   
    19     9    10 1   
    20     9    29 1   
    21    10    11 1   
    22    10    16 1   
    23    10    30 1   
    24    11    12 1   
    25    11    31 1   
    26    12    32 1   
    27    13    33 1   
    28    14    34 1   
    29    15    16 1   
    30    16    17 1   
    31    16    35 1   
    32    17    18 2   
    33    17    19 2   
    34    17    20 1   
    35    20    21 1   
    36    20    22 1   
    37    21    24 1   
    38    21    36 1   
    39    21    37 1   
    40    22    23 1   
    41    22    38 1   
    42    22    39 1   
    43    23    24 1   
    44    23    40 1   
    45    23    41 1   
    46    24    42 1   
@<TRIPOS>SUBSTRUCTURE
     1 3J4         1 TEMP              0 ****  ****    0 ROOT
