@<TRIPOS>MOLECULE
3J5
   63    67     1     0     0
SMALL
bcc


@<TRIPOS>ATOM
      1 C1           0.0000     0.0000     0.0000 ca         1 3J5      -0.015300
      2 C2           1.3810     0.0000     0.0000 ca         1 3J5      -0.247300
      3 C3           2.0610     0.0000     1.2150 ca         1 3J5       0.496200
      4 C7          -2.8680     0.9440     0.5460 ca         1 3J5      -0.102500
      5 C8          -4.2430     0.9500     0.5960 ca         1 3J5      -0.067500
      6 C9          -4.9170     0.0210     1.3930 ca         1 3J5      -0.160900
      7 C10         -4.1930    -0.9140     2.1390 ca         1 3J5      -0.067500
      8 C11         -2.8180    -0.9180     2.0880 ca         1 3J5      -0.102500
      9 C12         -6.3930     0.0270     1.4470 cc         1 3J5       0.359500
     10 C13         -8.3700    -0.9270     2.3160 c          1 3J5       0.621100
     11 C14         -9.1180     0.0630     1.5270 ca         1 3J5      -0.214600
     12 C15        -10.5100     0.1140     1.5400 ca         1 3J5      -0.020000
     13 C16        -11.1600     1.0630     0.7800 ca         1 3J5      -0.126000
     14 C19         -8.3860     0.9840     0.7430 ca         1 3J5       0.156400
     15 C21          3.9800    -1.1420     0.4630 c3         1 3J5       0.097800
     16 C22          5.5080    -1.0630     0.4280 c3         1 3J5       0.147800
     17 C24          3.9690    -0.0020     2.5970 c3         1 3J5       0.100800
     18 O           -8.9450    -1.7420     3.0140 o          1 3J5      -0.665500
     19 N1          -7.0200    -0.8970     2.2380 ns         1 3J5      -0.017400
     20 C18         -9.0730     1.9370    -0.0130 ca         1 3J5      -0.100300
     21 O1          -9.2320     3.7740    -1.5460 oh         1 3J5      -0.600800
     22 C17        -10.4400     1.9630     0.0070 ca         1 3J5      -0.045000
     23 N2          -7.0390     0.9190     0.7410 nd         1 3J5      -0.543100
     24 C6          -2.1470     0.0070     1.2870 cp         1 3J5       0.003000
     25 C5          -0.6650     0.0010     1.2330 cp         1 3J5      -0.200300
     26 C           -0.7720     0.0060    -1.2930 c3         1 3J5       0.047200
     27 C4           0.0850    -0.0050     2.4070 ca         1 3J5       0.449200
     28 N            1.4020     0.0010     2.3640 nb         1 3J5      -0.631000
     29 N3           3.4500    -0.0010     1.2220 nh         1 3J5      -0.456300
     30 C23          5.4980     0.0780     2.5630 c3         1 3J5       0.130500
     31 C25          5.9270     1.3830     1.8890 c3         1 3J5      -0.008100
     32 N4           6.0270    -1.0630     1.8020 n3         1 3J5      -0.538600
     33 C26          5.7250    -2.3310     2.4790 c3         1 3J5       0.168100
     34 H1           1.9280    -0.0010    -0.9350 ha         1 3J5       0.129000
     35 H2          -2.3450     1.6620    -0.0730 ha         1 3J5       0.116500
     36 H3          -4.8030     1.6760     0.0180 ha         1 3J5       0.116500
     37 H4          -4.7150    -1.6330     2.7590 ha         1 3J5       0.116500
     38 H5          -2.2570    -1.6430     2.6650 ha         1 3J5       0.116500
     39 H6         -11.0780    -0.5850     2.1430 ha         1 3J5       0.124000
     40 H7         -12.2420     1.1020     0.7800 ha         1 3J5       0.108000
     41 H8          -7.6670     3.5220    -0.2280 h1         1 3J5       0.000200
     42 H9          -7.7070     2.3860    -1.5840 h1         1 3J5       0.000200
     43 H10          3.6780    -2.0650     0.9420 h1         1 3J5       0.025200
     44 H11          3.5950    -1.1110    -0.5490 h1         1 3J5       0.025200
     45 H12          5.9000    -1.9210    -0.1060 h1         1 3J5       0.033200
     46 H13          5.8100    -0.1510    -0.0720 h1         1 3J5       0.033200
     47 H14          3.5760     0.8550     3.1310 h1         1 3J5       0.037200
     48 H15          3.6670    -0.9150     3.0960 h1         1 3J5       0.037200
     49 H16         -6.4760    -1.5540     2.7620 hn         1 3J5       0.190500
     50 H17         -8.7550     4.3900    -2.0770 ho         1 3J5       0.393000
     51 H18        -10.9680     2.7010    -0.5840 ha         1 3J5       0.126000
     52 H19         -1.0440     1.0230    -1.5470 hc         1 3J5       0.017033
     53 H20         -1.6690    -0.5900    -1.1800 hc         1 3J5       0.017033
     54 H21         -0.1580    -0.4110    -2.0820 hc         1 3J5       0.017033
     55 H22         -0.4210    -0.0040     3.3650 h4         1 3J5      -0.015900
     56 H23          5.8820     0.0440     3.5750 h1         1 3J5       0.038700
     57 H24          5.9250     2.1840     2.6190 hc         1 3J5       0.014367
     58 H25          6.9240     1.2680     1.4810 hc         1 3J5       0.014367
     59 H26          5.2350     1.6210     1.0900 hc         1 3J5       0.014367
     60 H28          6.2210    -3.1440     1.9610 h1         1 3J5       0.005700
     61 H29          4.6550    -2.4990     2.4720 h1         1 3J5       0.005700
     62 H30          6.0770    -2.2870     3.5020 h1         1 3J5       0.005700
     63 C20         -8.3100     2.9230    -0.8610 c3         1 3J5       0.290700
@<TRIPOS>BOND
     1     1     2 ar  
     2     1    25 ar  
     3     1    26 1   
     4     2     3 ar  
     5     2    34 1   
     6     3    28 ar  
     7     3    29 1   
     8     4     5 ar  
     9     4    24 ar  
    10     4    35 1   
    11     5     6 ar  
    12     5    36 1   
    13     6     7 ar  
    14     6     9 1   
    15     7     8 ar  
    16     7    37 1   
    17     8    24 ar  
    18     8    38 1   
    19     9    19 1   
    20     9    23 2   
    21    10    11 1   
    22    10    18 2   
    23    10    19 1   
    24    11    12 ar  
    25    11    14 ar  
    26    12    13 ar  
    27    12    39 1   
    28    13    22 ar  
    29    13    40 1   
    30    14    20 ar  
    31    14    23 1   
    32    15    16 1   
    33    15    29 1   
    34    15    43 1   
    35    15    44 1   
    36    16    32 1   
    37    16    45 1   
    38    16    46 1   
    39    17    29 1   
    40    17    30 1   
    41    17    47 1   
    42    17    48 1   
    43    19    49 1   
    44    20    22 ar  
    45    20    63 1   
    46    21    50 1   
    47    21    63 1   
    48    22    51 1   
    49    24    25 1   
    50    25    27 ar  
    51    26    52 1   
    52    26    53 1   
    53    26    54 1   
    54    27    28 ar  
    55    27    55 1   
    56    30    31 1   
    57    30    32 1   
    58    30    56 1   
    59    31    57 1   
    60    31    58 1   
    61    31    59 1   
    62    32    33 1   
    63    33    60 1   
    64    33    61 1   
    65    33    62 1   
    66    41    63 1   
    67    42    63 1   
@<TRIPOS>SUBSTRUCTURE
     1 3J5         1 TEMP              0 ****  ****    0 ROOT
