@<TRIPOS>MOLECULE
3J6
   41    44     1     0     0
SMALL
bcc


@<TRIPOS>ATOM
      1 O          -0.1490   -0.0040   -0.0100 o         1 3J6     -0.521100
      2 C           1.1270    0.7540   -2.4820 c3        1 3J6     -0.056900
      3 C6          1.0810    0.1010   -0.0500 c         1 3J6      0.538300
      4 C1          1.8600    0.2720   -1.2890 ce        1 3J6     -0.179400
      5 C5          1.9070    0.0410    1.2300 c3        1 3J6      0.043100
      6 O1          1.0800   -0.1870    2.3500 oh        1 3J6     -0.581800
      7 C4          3.0580   -0.9880    1.0790 c3        1 3J6     -0.069000
      8 C14         2.4070   -2.3460    0.7680 c3        1 3J6      0.129400
      9 O5          3.3640   -3.2450    0.2350 oh        1 3J6     -0.601800
     10 C7          3.9610   -1.0670    2.3420 c3        1 3J6     -0.011000
     11 C13         3.3010   -1.6550    3.5670 c3        1 3J6     -0.096100
     12 C11         4.4800    0.3570    2.5610 cx        1 3J6      0.027800
     13 O2          4.9060    0.7480    3.8760 os        1 3J6     -0.390600
     14 C12         3.8100    1.4630    3.2860 cx        1 3J6      0.080400
     15 C10         5.5040    0.5010    1.4420 c3        1 3J6      0.125100
     16 C9          6.3190   -0.8070    1.6000 c3        1 3J6      0.115100
     17 O4          7.0510   -1.1780    0.4590 oh        1 3J6     -0.581800
     18 C8          5.2710   -1.8490    2.0380 c3        1 3J6     -0.123400
     19 O3          4.8380    0.5630    0.1870 os        1 3J6     -0.409600
     20 C3          3.9360   -0.5220   -0.1120 c3        1 3J6      0.161300
     21 C2          3.1680   -0.0230   -1.3000 c2        1 3J6     -0.094200
     22 H1          1.7170    0.5900   -3.4160 hc        1 3J6      0.055033
     23 H2          0.9170    1.8490   -2.3800 hc        1 3J6      0.055033
     24 H3          0.1470    0.2200   -2.5710 hc        1 3J6      0.055033
     25 H4          2.3540    1.0640    1.4030 h1        1 3J6      0.110700
     26 H5          0.3910   -0.8160    2.0910 ho        1 3J6      0.416000
     27 H6          1.9540   -2.7620    1.7080 h1        1 3J6      0.035200
     28 H7          1.5870   -2.2110    0.0070 h1        1 3J6      0.035200
     29 H8          2.9430   -4.1120    0.2110 ho        1 3J6      0.411000
     30 H9          2.3130   -1.1810    3.7730 hc        1 3J6      0.053033
     31 H10         3.1610   -2.7560    3.4430 hc        1 3J6      0.053033
     32 H11         3.9600   -1.4810    4.4550 hc        1 3J6      0.053033
     33 H12         2.8290    1.2890    3.7700 h1        1 3J6      0.089700
     34 H13         4.0300    2.5160    3.0310 h1        1 3J6      0.089700
     35 H14         6.1240    1.4300    1.4780 h1        1 3J6      0.107700
     36 H15         7.0990   -0.6690    2.4010 h1        1 3J6      0.093700
     37 H16         6.4970   -1.0290   -0.3170 ho        1 3J6      0.406000
     38 H17         5.1270   -2.6280    1.2530 hc        1 3J6      0.076200
     39 H18         5.6220   -2.3610    2.9680 hc        1 3J6      0.076200
     40 H19         4.5550   -1.4110   -0.4400 h1        1 3J6      0.078700
     41 H20         3.7770    0.1030   -2.2100 ha        1 3J6      0.147000
@<TRIPOS>BOND
     1    1    3 2   
     2    2    4 1   
     3    2   22 1   
     4    2   23 1   
     5    2   24 1   
     6    3    4 1   
     7    3    5 1   
     8    4   21 2   
     9    5    6 1   
    10    5    7 1   
    11    5   25 1   
    12    6   26 1   
    13    7    8 1   
    14    7   10 1   
    15    7   20 1   
    16    8    9 1   
    17    8   27 1   
    18    8   28 1   
    19    9   29 1   
    20   10   11 1   
    21   10   12 1   
    22   10   18 1   
    23   11   30 1   
    24   11   31 1   
    25   11   32 1   
    26   12   13 1   
    27   12   14 1   
    28   12   15 1   
    29   13   14 1   
    30   14   33 1   
    31   14   34 1   
    32   15   16 1   
    33   15   19 1   
    34   15   35 1   
    35   16   17 1   
    36   16   18 1   
    37   16   36 1   
    38   17   37 1   
    39   18   38 1   
    40   18   39 1   
    41   19   20 1   
    42   20   21 1   
    43   20   40 1   
    44   21   41 1   
@<TRIPOS>SUBSTRUCTURE
     1 3J6         1 TEMP              0 ****  ****    0 ROOT
