@<TRIPOS>MOLECULE
molecule
   41    44     1     0     0
SMALL
bcc


@<TRIPOS>ATOM
      1 O            0.0000     0.0000     0.0000 o          1 3J6      -0.532100
      2 C            1.2550     0.2630    -2.5560 c3         1 3J6      -0.040900
      3 C6           1.2130     0.0000     0.0000 c          1 3J6       0.571300
      4 C1           1.9720     0.0070    -1.2550 ce         1 3J6      -0.152400
      5 C5           1.9950     0.0000     1.2980 c3         1 3J6       0.054100
      6 O1           1.1610    -0.4440     2.3690 oh         1 3J6      -0.599800
      7 C4           3.1730    -0.9670     1.1180 c3         1 3J6      -0.062000
      8 C14          2.6440    -2.3610     0.7760 c3         1 3J6       0.142400
      9 O5           1.8900    -2.3010    -0.4360 oh         1 3J6      -0.608800
     10 C7           3.9790    -1.0260     2.4300 c3         1 3J6      -0.027000
     11 C13          3.1940    -1.6400     3.5910 c3         1 3J6      -0.075100
     12 C11          4.4530     0.4120     2.7090 cx         1 3J6       0.008800
     13 O2           4.5660     0.9550     4.0050 op         1 3J6      -0.359600
     14 C12          3.5190     1.5020     3.1940 cx         1 3J6       0.058400
     15 C10          5.4920     0.6420     1.5980 c3         1 3J6       0.160100
     16 C9           6.2630    -0.7010     1.5480 c3         1 3J6       0.107100
     17 O4           6.6260    -1.0110     0.2010 oh         1 3J6      -0.595800
     18 C8           5.2880    -1.7920     2.1030 c3         1 3J6      -0.094400
     19 O3           4.7490     0.7420     0.3680 os         1 3J6      -0.396600
     20 C3           4.0670    -0.4660    -0.0140 c3         1 3J6       0.177300
     21 C2           3.2800    -0.2090    -1.2590 c2         1 3J6      -0.100200
     22 H1           0.8950     1.2840    -2.5750 hc         1 3J6       0.046700
     23 H2           1.9380     0.1050    -3.3820 hc         1 3J6       0.046700
     24 H3           0.4160    -0.4170    -2.6460 hc         1 3J6       0.046700
     25 H4           2.3670     0.9970     1.5020 h1         1 3J6       0.075700
     26 H5           0.3720     0.0710     2.3870 ho         1 3J6       0.418000
     27 H6           3.4770    -3.0420     0.6500 h1         1 3J6       0.039700
     28 H7           2.0090    -2.7130     1.5800 h1         1 3J6       0.039700
     29 H8           1.6350    -3.1730    -0.6910 ho         1 3J6       0.406000
     30 H9           2.8090    -2.6080     3.2940 hc         1 3J6       0.050700
     31 H10          3.8480    -1.7590     4.4470 hc         1 3J6       0.050700
     32 H11          2.3700    -0.9890     3.8550 hc         1 3J6       0.050700
     33 H12          3.7020     2.4920     2.7940 h1         1 3J6       0.092200
     34 H13          2.5140     1.1840     3.4470 h1         1 3J6       0.092200
     35 H14          6.1330     1.4960     1.7830 h1         1 3J6       0.103700
     36 H15          7.1490    -0.6440     2.1690 h1         1 3J6       0.048700
     37 H16          7.5620    -1.0980     0.1400 ho         1 3J6       0.402000
     38 H17          5.1040    -2.5500     1.3510 hc         1 3J6       0.063200
     39 H18          5.6960    -2.2410     3.0000 hc         1 3J6       0.063200
     40 H19          4.8090    -1.2260    -0.2270 h1         1 3J6       0.092700
     41 H20          3.8030    -0.1990    -2.2080 ha         1 3J6       0.137000
@<TRIPOS>BOND
     1    14    13 1
     2    14    12 1
     3    13    12 1
     4    19    15 1
     5    19    20 1
     6    15    12 1
     7    15    16 1
     8    12    10 1
     9     2     4 1
    10     1     3 2
    11     4    21 2
    12     4     3 1
    13    21    20 1
    14     3     5 1
    15    20     7 1
    16     5     7 1
    17     5     6 1
    18    16    17 1
    19    16    18 1
    20    10     7 1
    21    10    11 1
    22    10    18 1
    23     7     8 1
    24     8     9 1
    25     2    22 1
    26     2    23 1
    27     2    24 1
    28     5    25 1
    29     6    26 1
    30     8    27 1
    31     8    28 1
    32     9    29 1
    33    11    30 1
    34    11    31 1
    35    11    32 1
    36    14    33 1
    37    14    34 1
    38    15    35 1
    39    16    36 1
    40    17    37 1
    41    18    38 1
    42    18    39 1
    43    20    40 1
    44    21    41 1
@<TRIPOS>SUBSTRUCTURE
     1 3J6         1 TEMP              0 ****  ****    0 ROOT
