@<TRIPOS>MOLECULE
3J7
   45    48     1     0     0
SMALL
bcc


@<TRIPOS>ATOM
      1 C1           0.0000     0.0000     0.0000 ca         1 3J7       0.412200
      2 C2           1.3670     0.0000     0.0000 ca         1 3J7      -0.210300
      3 C3          -0.1340     0.0030     2.3120 ca         1 3J7       0.380900
      4 C11          5.2650    -0.0000     5.0810 ca         1 3J7      -0.029000
      5 C12          5.1140     0.0080     7.4660 ca         1 3J7      -0.164200
      6 C13          3.7070     0.0030     7.3810 ca         1 3J7      -0.285900
      7 C14          3.2130    -0.0020     8.7550 cc         1 3J7       0.455800
      8 C15          5.7550    -0.0040     0.3850 c3         1 3J7       0.169800
      9 C16          6.4130    -0.0060    -0.9970 c3         1 3J7      -0.109800
     10 C17          7.9340    -0.0070    -0.8390 c3         1 3J7      -0.000600
     11 C18          5.9790    -1.2550    -1.7660 c3         1 3J7      -0.000600
     12 N1          -0.6970     0.0020     1.1250 nb         1 3J7      -0.544000
     13 C4           1.2640     0.0020     2.4210 ca         1 3J7       0.313300
     14 C5           2.0340     0.0000     1.2280 ca         1 3J7      -0.290600
     15 C6           3.4890    -0.0010     1.3480 ca         1 3J7       0.538200
     16 N2           4.0020     0.0000     2.5710 nb         1 3J7      -0.684000
     17 C7           3.2210     0.0010     3.6500 cp         1 3J7       0.724500
     18 N3           1.9030     0.0020     3.5960 nb         1 3J7      -0.615000
     19 C8           3.8680     0.0010     4.9830 cp         1 3J7      -0.242500
     20 C9           3.0870     0.0020     6.1300 ca         1 3J7       0.058000
     21 C10          5.8770     0.0010     6.3000 ca         1 3J7      -0.132000
     22 N4           4.2460     0.0010     9.5490 nd         1 3J7      -0.623100
     23 N5           5.4270     0.0070     8.8000 na         1 3J7       0.425900
     24 N6           4.2990    -0.0030     0.2320 nu         1 3J7      -0.559900
     25 N7           5.9980     1.1940    -1.7380 nz         1 3J7       0.056400
     26 H1          -0.5270    -0.0010    -0.9460 h4         1 3J7      -0.013900
     27 H2           1.9210    -0.0020    -0.9310 ha         1 3J7       0.090000
     28 H3          -0.7480     0.0040     3.2050 h4         1 3J7       0.007100
     29 H4           5.8660    -0.0030     4.1800 ha         1 3J7       0.104000
     30 H5           2.1740    -0.0060     9.0600 h4         1 3J7       0.020800
     31 H6           6.0620     0.8810     0.9290 h1         1 3J7       0.060200
     32 H7           6.0610    -0.8880     0.9310 h1         1 3J7       0.060200
     33 H8           8.3990    -0.0030    -1.8170 hc         1 3J7       0.041867
     34 H9           8.2410     0.8760    -0.2900 hc         1 3J7       0.041867
     35 H10          8.2400    -0.8930    -0.2960 hc         1 3J7       0.041867
     36 H11          5.0020    -1.0900    -2.2020 hc         1 3J7       0.041867
     37 H12          6.6950    -1.4620    -2.5530 hc         1 3J7       0.041867
     38 H13          5.9350    -2.0990    -1.0880 hc         1 3J7       0.041867
     39 H14          2.0070     0.0030     6.0550 ha         1 3J7       0.125000
     40 H15          6.9580     0.0000     6.3610 ha         1 3J7       0.107000
     41 H17          3.8910    -0.0190    -0.6820 hn         1 3J7       0.292800
     42 H18          6.6390     1.3600    -2.4890 hn         1 3J7       0.230800
     43 H19          5.0790     1.0560    -2.1080 hn         1 3J7       0.230800
     44 H191         6.3530     0.0100     9.1780 hn         1 3J7       0.156700
     45 H73          6.0070     1.9840    -1.1240 hn         1 3J7       0.230800
@<TRIPOS>BOND
     1     1     2 ar  
     2     1    12 ar  
     3     1    26 1   
     4     2    14 ar  
     5     2    27 1   
     6     3    12 ar  
     7     3    13 ar  
     8     3    28 1   
     9     4    19 ar  
    10     4    21 ar  
    11     4    29 1   
    12     5     6 ar  
    13     5    21 ar  
    14     5    23 1   
    15     6     7 1   
    16     6    20 ar  
    17     7    22 2   
    18     7    30 1   
    19     8     9 1   
    20     8    24 1   
    21     8    31 1   
    22     8    32 1   
    23     9    10 1   
    24     9    11 1   
    25     9    25 1   
    26    10    33 1   
    27    10    34 1   
    28    10    35 1   
    29    11    36 1   
    30    11    37 1   
    31    11    38 1   
    32    13    14 ar  
    33    13    18 ar  
    34    14    15 ar  
    35    15    16 ar  
    36    15    24 1   
    37    16    17 ar  
    38    17    18 ar  
    39    17    19 1   
    40    19    20 ar  
    41    20    39 1   
    42    21    40 1   
    43    22    23 1   
    44    23    44 1   
    45    24    41 1   
    46    25    42 1   
    47    25    43 1   
    48    25    45 1   
@<TRIPOS>SUBSTRUCTURE
     1 3J7         1 TEMP              0 ****  ****    0 ROOT
