@<TRIPOS>MOLECULE
molecule
   45    48     1     0     0
SMALL
bcc


@<TRIPOS>ATOM
      1 C1           0.0000     0.0000     0.0000 ca         1 3J7       0.421200
      2 C2           1.3670     0.0000     0.0000 ca         1 3J7      -0.237300
      3 C3          -0.1340     0.0030     2.3120 ca         1 3J7       0.403900
      4 C11          5.2650    -0.0000     5.0810 ca         1 3J7      -0.050000
      5 C12          5.1140     0.0080     7.4660 ca         1 3J7       0.003800
      6 C13          3.7070     0.0030     7.3810 ca         1 3J7      -0.269900
      7 C14          3.2130    -0.0020     8.7550 cc         1 3J7       0.392800
      8 C15          5.7550    -0.0040     0.3850 c3         1 3J7       0.232800
      9 C16          6.4130    -0.0060    -0.9970 c3         1 3J7       0.085200
     10 C17          7.9340    -0.0070    -0.8390 c3         1 3J7      -0.112100
     11 C18          5.9790    -1.2550    -1.7660 c3         1 3J7      -0.112100
     12 N1          -0.6970     0.0020     1.1250 nb         1 3J7      -0.655000
     13 C4           1.2640     0.0020     2.4210 ca         1 3J7       0.354300
     14 C5           2.0340     0.0000     1.2280 ca         1 3J7      -0.296600
     15 C6           3.4890    -0.0010     1.3480 ca         1 3J7       0.725200
     16 N2           4.0020     0.0000     2.5710 nb         1 3J7      -0.808000
     17 C7           3.2210     0.0010     3.6500 cp         1 3J7       0.807500
     18 N3           1.9030     0.0020     3.5960 nb         1 3J7      -0.735000
     19 C8           3.8680     0.0010     4.9830 cp         1 3J7      -0.214500
     20 C9           3.0870     0.0020     6.1300 ca         1 3J7       0.015000
     21 C10          5.8770     0.0010     6.3000 ca         1 3J7      -0.171000
     22 N4           4.2460     0.0010     9.5490 nd         1 3J7      -0.484100
     23 N5           5.4270     0.0070     8.8000 na         1 3J7      -0.044100
     24 N6           4.2990    -0.0030     0.2320 nu         1 3J7      -0.941900
     25 N7           5.9980     1.1940    -1.7380 nz         1 3J7      -0.810600
     26 H1          -0.5270    -0.0010    -0.9460 h4         1 3J7       0.032100
     27 H2           1.9210    -0.0020    -0.9310 ha         1 3J7       0.109000
     28 H3          -0.7480     0.0040     3.2050 h4         1 3J7       0.059100
     29 H4           5.8660    -0.0030     4.1800 ha         1 3J7       0.137000
     30 H5           2.1740    -0.0060     9.0600 h4         1 3J7       0.071800
     31 H6           6.0620     0.8810     0.9290 h1         1 3J7       0.091700
     32 H7           6.0610    -0.8880     0.9310 h1         1 3J7       0.091700
     33 H8           8.3990    -0.0030    -1.8170 hc         1 3J7       0.078867
     34 H9           8.2410     0.8760    -0.2900 hc         1 3J7       0.078867
     35 H10          8.2400    -0.8930    -0.2960 hc         1 3J7       0.078867
     36 H11          5.0020    -1.0900    -2.2020 hc         1 3J7       0.078867
     37 H12          6.6950    -1.4620    -2.5530 hc         1 3J7       0.078867
     38 H13          5.9350    -2.0990    -1.0880 hc         1 3J7       0.078867
     39 H14          2.0070     0.0030     6.0550 ha         1 3J7       0.162000
     40 H15          6.9580     0.0000     6.3610 ha         1 3J7       0.135000
     41 H17          3.8910    -0.0190    -0.6820 hn         1 3J7       0.437800
     42 H18          6.6390     1.3600    -2.4890 hn         1 3J7       0.455467
     43 H19          5.0790     1.0560    -2.1080 hn         1 3J7       0.455467
     44 H191         6.3530     0.0100     9.1780 hn         1 3J7       0.338700
     45 H73          6.0070     1.9840    -1.1240 hn         1 3J7       0.455467
@<TRIPOS>BOND
     1     1    12 ar  
     2     1     2 ar  
     3     1    26 1   
     4     2    14 ar  
     5     2    27 1   
     6     3    13 ar  
     7     3    28 1   
     8     4    21 ar  
     9     4    29 1   
    10     5    23 1   
    11     6     5 ar  
    12     6     7 1   
    13     7    22 2   
    14     7    30 1   
    15     8     9 1   
    16     8    31 1   
    17     8    32 1   
    18     9    10 1   
    19     9    11 1   
    20    10    33 1   
    21    10    34 1   
    22    10    35 1   
    23    11    36 1   
    24    11    37 1   
    25    11    38 1   
    26    12     3 ar  
    27    13    18 ar  
    28    14    13 ar  
    29    14    15 ar  
    30    15    16 ar  
    31    16    17 ar  
    32    17    19 1   
    33    18    17 ar  
    34    19     4 ar  
    35    19    20 ar  
    36    20     6 ar  
    37    20    39 1   
    38    21     5 ar  
    39    21    40 1   
    40    23    22 1   
    41    24    15 1   
    42    24     8 1   
    43    24    41 1   
    44    25     9 1   
    45    25    42 1   
    46    25    43 1   
    47    23    44 1   
    48    45    25 1   
@<TRIPOS>SUBSTRUCTURE
     1 3J7         1 TEMP              0 ****  ****    0 ROOT
