@<TRIPOS>MOLECULE
3J8
   26    28     1     0     0
SMALL
bcc


@<TRIPOS>ATOM
      1 C4           0.0000     0.0000     0.0000 cc         1 3J8       0.288800
      2 C5           1.4750     0.0000     0.0000 c          1 3J8       0.519800
      3 C6           2.1380     0.0000     1.2320 cc         1 3J8      -0.297200
      4 C10         -2.7390    -0.0000     0.1190 ca         1 3J8      -0.179600
      5 C13         -4.8010    -0.0000    -1.1030 ca         1 3J8      -0.023000
      6 C15         -2.7390     0.0060    -2.3200 ca         1 3J8      -0.068300
      7 C1           1.4350     0.0000     2.4150 cd         1 3J8       0.029000
      8 C2           0.0520     0.0000     2.4590 cd         1 3J8      -0.278000
      9 C3          -0.6940    -0.0000     1.2950 cc         1 3J8      -0.174600
     10 N7          -2.0650    -0.0000     1.3160 na         1 3J8       0.368900
     11 N8          -0.6880     0.0060    -1.1200 nd         1 3J8      -0.422000
     12 C9          -2.0230     0.0060    -1.1040 ca         1 3J8       0.267600
     13 C11         -4.1330    -0.0000     0.1000 ca         1 3J8      -0.177000
     14 C14         -4.1000    -0.0000    -2.3070 ca         1 3J8      -0.146000
     15 C16         -2.7960    -0.0000     2.5870 c3         1 3J8      -0.034400
     16 O19          2.1030    -0.0000    -1.0500 o          1 3J8      -0.569100
     17 H11         -4.6880     0.0000     1.0290 ha         1 3J8       0.121000
     18 H1           1.9860     0.0000     3.3480 ha         1 3J8       0.092000
     19 H2          -0.4530     0.0000     3.4180 ha         1 3J8       0.119000
     20 H6           3.2220     0.0000     1.2550 ha         1 3J8       0.128000
     21 H13         -5.8840    -0.0050    -1.1140 ha         1 3J8       0.104000
     22 H14         -4.6440    -0.0000    -3.2430 ha         1 3J8       0.112000
     23 H16         -3.0980     1.0110     2.8290 h1         1 3J8       0.031700
     24 H16A        -3.6740    -0.6280     2.4980 h1         1 3J8       0.031700
     25 H16B        -2.1550    -0.3840     3.3710 h1         1 3J8       0.031700
     26 H15         -2.2060     0.0060    -3.2630 ha         1 3J8       0.123000
@<TRIPOS>BOND
     1     1     2 1   
     2     1     9 1   
     3     1    11 2   
     4     2     3 1   
     5     2    16 2   
     6     3     7 2   
     7     3    20 1   
     8     4    10 1   
     9     4    12 ar  
    10     4    13 ar  
    11     5    13 ar  
    12     5    14 ar  
    13     5    21 1   
    14     6    12 ar  
    15     6    14 ar  
    16     6    26 1   
    17     7     8 1   
    18     7    18 1   
    19     8     9 2   
    20     8    19 1   
    21     9    10 1   
    22    10    15 1   
    23    11    12 1   
    24    13    17 1   
    25    14    22 1   
    26    15    23 1   
    27    15    24 1   
    28    15    25 1   
@<TRIPOS>SUBSTRUCTURE
     1 3J8         1 TEMP              0 ****  ****    0 ROOT
