@<TRIPOS>MOLECULE
molecule
   48    52     1     0     0
SMALL
bcc


@<TRIPOS>ATOM
      1 C1           0.0000     0.0000     0.0000 ca         1 3J9      -0.067000
      2 C2           1.3930     0.0000     0.0000 cp         1 3J9      -0.063000
      3 C3           2.0850     0.0000     1.2070 ca         1 3J9      -0.069000
      4 C4           1.3970    -0.0030     2.4080 ca         1 3J9      -0.179300
      5 C5           0.0100     0.0050     2.4010 ca         1 3J9       0.171100
      6 C6          -0.6840     0.0070     1.1970 ca         1 3J9      -0.139000
      7 C7           2.1380     0.0000    -1.2840 cp         1 3J9      -0.204300
      8 O8          -0.6960     0.0370     3.5630 os         1 3J9      -0.305900
      9 C9          -0.0440     0.6090     4.6990 c3         1 3J9       0.136800
     10 C10          1.2890    -0.1090     4.9160 c3         1 3J9       0.119100
     11 C11          2.1760    -0.0340     3.6900 c3         1 3J9       0.173500
     12 C12          3.1670     1.1420     3.7710 c3         1 3J9       0.131400
     13 O13          4.3110     0.5030     4.3840 os         1 3J9      -0.405400
     14 C14          4.2590    -0.8060     4.0620 c2         1 3J9       0.584500
     15 N15          3.0890    -1.1980     3.6600 n2         1 3J9      -0.552900
     16 N16          5.3440    -1.6430     4.1520 nz         1 3J9      -0.717600
     17 O17          1.9350     0.4640     6.0570 os         1 3J9      -0.431600
     18 C18          1.2160     0.2350     7.2730 c3         1 3J9       0.134400
     19 C19         -0.1690     0.8750     7.1910 c3         1 3J9      -0.117400
     20 C20         -0.9130     0.3940     5.9450 c3         1 3J9      -0.068400
     21 C21          0.1550     2.1070     4.4720 c3         1 3J9      -0.120100
     22 C22          3.1610     0.9230    -1.5110 ca         1 3J9       0.643500
     23 N23          3.8220     0.9220    -2.6520 nb         1 3J9      -0.716000
     24 C24          3.5480     0.0630    -3.6150 ca         1 3J9       0.464200
     25 C25          2.5490    -0.8800    -3.4660 ca         1 3J9      -0.263300
     26 C26          1.8280    -0.9250    -2.2840 ca         1 3J9      -0.053000
     27 F27          3.4770     1.8220    -0.5530 f          1 3J9      -0.226200
     28 H1          -0.4700     0.5400    -0.8130 ha         1 3J9       0.167000
     29 H2           3.1680    -0.0000     1.2070 ha         1 3J9       0.124000
     30 H3          -1.6310    -0.5190     1.1990 ha         1 3J9       0.169000
     31 H4           1.0850    -1.1520     5.1270 h1         1 3J9       0.074700
     32 H5           3.4130     1.5090     2.7820 h1         1 3J9       0.113700
     33 H6           2.7800     1.9320     4.4030 h1         1 3J9       0.113700
     34 H7           6.1340    -1.2130     3.7130 hn         1 3J9       0.483133
     35 H8           5.1370    -2.5080     3.6930 hn         1 3J9       0.483133
     36 H9           1.7630     0.6700     8.1000 h1         1 3J9       0.060200
     37 H10          1.1070    -0.8320     7.4280 h1         1 3J9       0.060200
     38 H11         -0.0610     1.9520     7.1460 hc         1 3J9       0.068700
     39 H12         -0.7390     0.6050     8.0720 hc         1 3J9       0.068700
     40 H13         -1.8350     0.9540     5.8400 hc         1 3J9       0.070200
     41 H14         -1.1370    -0.6610     6.0470 hc         1 3J9       0.070200
     42 H15         -0.8020     2.6110     4.5260 hc         1 3J9       0.058033
     43 H16          0.5930     2.2690     3.4940 hc         1 3J9       0.058033
     44 H17          0.8160     2.5030     5.2330 hc         1 3J9       0.058033
     45 H18          4.1140     0.0980    -4.5380 h4         1 3J9       0.042100
     46 H19          2.3350    -1.5810    -4.2630 ha         1 3J9       0.156000
     47 H20          1.0400    -1.6540    -2.1410 ha         1 3J9       0.155000
     48 H163         5.5640    -1.8010     5.1150 hn         1 3J9       0.483133
@<TRIPOS>BOND
     1    21     9 1
     2    19    20 1
     3    19    18 1
     4    20     9 1
     5     9     8 1
     6     9    10 1
     7    12    13 1
     8    12    11 1
     9    18    17 1
    10    17    10 1
    11     8     5 1
    12    13    14 1
    13    10    11 1
    14     5     6 ar
    15     5     4 ar
    16    11     4 1
    17    11    15 1
    18     6     1 ar
    19     4     3 ar
    20    26    25 ar
    21    26     7 ar
    22     1     2 ar
    23     3     2 ar
    24    14    15 2
    25    14    16 1
    26     2     7 1
    27    25    24 ar
    28     7    22 ar
    29    24    23 ar
    30    22    23 ar
    31    22    27 1
    32     1    28 1
    33     3    29 1
    34     6    30 1
    35    10    31 1
    36    12    32 1
    37    12    33 1
    38    16    34 1
    39    16    35 1
    40    18    36 1
    41    18    37 1
    42    19    38 1
    43    19    39 1
    44    20    40 1
    45    20    41 1
    46    21    42 1
    47    21    43 1
    48    21    44 1
    49    24    45 1
    50    25    46 1
    51    26    47 1
    52    48    16 1
@<TRIPOS>SUBSTRUCTURE
     1 3J9         1 TEMP              0 ****  ****    0 ROOT
