@<TRIPOS>MOLECULE
3J9
   48    52     1     0     0
SMALL
bcc


@<TRIPOS>ATOM
      1 C1           0.0000     0.0000     0.0000 ca         1 3J9      -0.037000
      2 C2           1.3930     0.0000     0.0000 cp         1 3J9      -0.054000
      3 C3           2.0850     0.0000     1.2070 ca         1 3J9      -0.046000
      4 C4           1.3970    -0.0030     2.4080 ca         1 3J9      -0.201300
      5 C5           0.0100     0.0050     2.4010 ca         1 3J9       0.183100
      6 C6          -0.6840     0.0070     1.1970 ca         1 3J9      -0.119000
      7 C7           2.1380     0.0000    -1.2840 cp         1 3J9      -0.186300
      8 O8          -0.6960     0.0370     3.5630 os         1 3J9      -0.281900
      9 C9          -0.0440     0.6090     4.6990 c3         1 3J9       0.142800
     10 C10          1.2890    -0.1090     4.9160 c3         1 3J9       0.143100
     11 C11          2.1760    -0.0340     3.6900 c3         1 3J9       0.166500
     12 C12          3.1670     1.1420     3.7710 c3         1 3J9       0.194400
     13 O13          4.3110     0.5030     4.3840 os         1 3J9      -0.374400
     14 C14          4.2590    -0.8060     4.0620 c2         1 3J9       0.338500
     15 N15          3.0890    -1.1980     3.6600 n2         1 3J9      -0.453900
     16 N16          5.3440    -1.6430     4.1520 nz         1 3J9       0.237400
     17 O17          1.9350     0.4640     6.0570 os         1 3J9      -0.417600
     18 C18          1.2160     0.2350     7.2730 c3         1 3J9       0.217400
     19 C19         -0.1690     0.8750     7.1910 c3         1 3J9      -0.064400
     20 C20         -0.9130     0.3940     5.9450 c3         1 3J9      -0.019400
     21 C21          0.1550     2.1070     4.4720 c3         1 3J9      -0.044100
     22 C22          3.1610     0.9230    -1.5110 ca         1 3J9       0.559500
     23 N23          3.8220     0.9220    -2.6520 nb         1 3J9      -0.580000
     24 C24          3.5480     0.0630    -3.6150 ca         1 3J9       0.439200
     25 C25          2.5490    -0.8800    -3.4660 ca         1 3J9      -0.222300
     26 C26          1.8280    -0.9250    -2.2840 ca         1 3J9      -0.031000
     27 F27          3.4770     1.8220    -0.5530 f          1 3J9      -0.229200
     28 H1          -0.4700     0.5400    -0.8130 ha         1 3J9       0.133000
     29 H2           3.1680    -0.0000     1.2070 ha         1 3J9       0.098000
     30 H3          -1.6310    -0.5190     1.1990 ha         1 3J9       0.137000
     31 H4           1.0850    -1.1520     5.1270 h1         1 3J9       0.043700
     32 H5           3.4130     1.5090     2.7820 h1         1 3J9       0.071700
     33 H6           2.7800     1.9320     4.4030 h1         1 3J9       0.071700
     34 H7           6.1340    -1.2130     3.7130 hn         1 3J9       0.223133
     35 H8           5.1370    -2.5080     3.6930 hn         1 3J9       0.223133
     36 H9           1.7630     0.6700     8.1000 h1         1 3J9       0.018200
     37 H10          1.1070    -0.8320     7.4280 h1         1 3J9       0.018200
     38 H11         -0.0610     1.9520     7.1460 hc         1 3J9       0.038200
     39 H12         -0.7390     0.6050     8.0720 hc         1 3J9       0.038200
     40 H13         -1.8350     0.9540     5.8400 hc         1 3J9       0.037200
     41 H14         -1.1370    -0.6610     6.0470 hc         1 3J9       0.037200
     42 H15         -0.8020     2.6110     4.5260 hc         1 3J9       0.029033
     43 H16          0.5930     2.2690     3.4940 hc         1 3J9       0.029033
     44 H17          0.8160     2.5030     5.2330 hc         1 3J9       0.029033
     45 H18          4.1140     0.0980    -4.5380 h4         1 3J9      -0.006900
     46 H19          2.3350    -1.5810    -4.2630 ha         1 3J9       0.127000
     47 H20          1.0400    -1.6540    -2.1410 ha         1 3J9       0.123000
     48 H163         5.5640    -1.8010     5.1150 hn         1 3J9       0.223133
@<TRIPOS>BOND
     1     1     2 ar  
     2     1     6 ar  
     3     1    28 1   
     4     2     3 ar  
     5     2     7 1   
     6     3     4 ar  
     7     3    29 1   
     8     4     5 ar  
     9     4    11 1   
    10     5     6 ar  
    11     5     8 1   
    12     6    30 1   
    13     7    22 ar  
    14     7    26 ar  
    15     8     9 1   
    16     9    10 1   
    17     9    20 1   
    18     9    21 1   
    19    10    11 1   
    20    10    17 1   
    21    10    31 1   
    22    11    12 1   
    23    11    15 1   
    24    12    13 1   
    25    12    32 1   
    26    12    33 1   
    27    13    14 1   
    28    14    15 2   
    29    14    16 1   
    30    16    34 1   
    31    16    35 1   
    32    16    48 1   
    33    17    18 1   
    34    18    19 1   
    35    18    36 1   
    36    18    37 1   
    37    19    20 1   
    38    19    38 1   
    39    19    39 1   
    40    20    40 1   
    41    20    41 1   
    42    21    42 1   
    43    21    43 1   
    44    21    44 1   
    45    22    23 ar  
    46    22    27 1   
    47    23    24 ar  
    48    24    25 ar  
    49    24    45 1   
    50    25    26 ar  
    51    25    46 1   
    52    26    47 1   
@<TRIPOS>SUBSTRUCTURE
     1 3J9         1 TEMP              0 ****  ****    0 ROOT
