@<TRIPOS>MOLECULE
3JA
   37    40     1     0     0
SMALL
bcc


@<TRIPOS>ATOM
      1 N3           0.0000     0.0000     0.0000 na         1 3JA       0.274900
      2 C4           1.0840    -0.9130     4.5080 cc         1 3JA       0.422200
      3 N2           0.7920    -0.5700     5.7340 nd         1 3JA      -0.658800
      4 C7           1.3680     0.0000     0.0000 ca         1 3JA       0.253800
      5 C6          -0.4730     0.0070     1.2870 cd         1 3JA      -0.285100
      6 C9           3.1630     0.0000     1.6180 ca         1 3JA       0.583200
      7 C13          4.9290    -1.1540     4.6410 c3         1 3JA       0.210400
      8 C8           1.7890     0.0000     1.3410 ca         1 3JA      -0.320400
      9 N5           2.2960    -0.0000    -0.9570 nb         1 3JA      -0.633000
     10 N1           0.0010     0.5850     5.6960 na         1 3JA       0.486400
     11 C2          -0.1760     0.9320     4.4040 cd         1 3JA      -0.249300
     12 C3           0.4860     0.0170     3.6370 cc         1 3JA      -0.239100
     13 C5           0.5660     0.0100     2.1540 cc         1 3JA       0.018600
     14 N4           4.0130    -0.0010     0.5940 nb         1 3JA      -0.692000
     15 C10          3.5760    -0.0010    -0.6530 ca         1 3JA       0.647900
     16 N6           3.6250    -0.0010     2.9210 nh         1 3JA      -0.508300
     17 C11          4.3290     1.2520     3.2320 c3         1 3JA       0.108300
     18 C12          4.7700     1.2340     4.6980 c3         1 3JA       0.210400
     19 O1           5.5840     0.0830     4.9320 os         1 3JA      -0.409600
     20 C14          4.4910    -1.1620     3.1740 c3         1 3JA       0.108300
     21 H1          -0.5730    -0.0040    -0.8210 hn         1 3JA       0.120700
     22 H2           1.6830    -1.7660     4.2120 h4         1 3JA       0.009100
     23 H3          -1.5190     0.0090     1.5680 h4         1 3JA       0.149000
     24 H4           5.6140    -1.9750     4.8160 h1         1 3JA       0.014450
     25 H5           4.0590    -1.2600     5.2780 h1         1 3JA       0.014450
     26 H6          -1.6210     1.2960     6.8090 h1         1 3JA       0.020033
     27 H7          -0.1760     2.3140     6.8600 h1         1 3JA       0.020033
     28 H8          -0.2200     0.7960     7.7660 h1         1 3JA       0.020033
     29 H9          -0.7420     1.7810     4.0410 h4         1 3JA       0.145000
     30 H10          4.3010    -0.0020    -1.4570 h5         1 3JA      -0.001900
     31 H11          5.2000     1.3430     2.5940 h1         1 3JA       0.026450
     32 H12          3.6640     2.0910     3.0650 h1         1 3JA       0.026450
     33 H13          5.3400     2.1300     4.9140 h1         1 3JA       0.014450
     34 H14          3.8950     1.1930     5.3360 h1         1 3JA       0.014450
     35 H15          5.3640    -1.1050     2.5360 h1         1 3JA       0.026450
     36 H16          3.9420    -2.0730     2.9660 h1         1 3JA       0.026450
     37 C1          -0.5390     1.2940     6.8580 c3         1 3JA       0.024600
@<TRIPOS>BOND
     1     1     4 1   
     2     1     5 1   
     3     1    21 1   
     4     2     3 2   
     5     2    12 1   
     6     2    22 1   
     7     3    10 1   
     8     4     8 ar  
     9     4     9 ar  
    10     5    13 2   
    11     5    23 1   
    12     6     8 ar  
    13     6    14 ar  
    14     6    16 1   
    15     7    19 1   
    16     7    20 1   
    17     7    24 1   
    18     7    25 1   
    19     8    13 1   
    20     9    15 ar  
    21    10    11 1   
    22    10    37 1   
    23    11    12 2   
    24    11    29 1   
    25    12    13 1   
    26    14    15 ar  
    27    15    30 1   
    28    16    17 1   
    29    16    20 1   
    30    17    18 1   
    31    17    31 1   
    32    17    32 1   
    33    18    19 1   
    34    18    33 1   
    35    18    34 1   
    36    20    35 1   
    37    20    36 1   
    38    26    37 1   
    39    27    37 1   
    40    28    37 1   
@<TRIPOS>SUBSTRUCTURE
     1 3JA         1 TEMP              0 ****  ****    0 ROOT
