@<TRIPOS>MOLECULE
molecule
   37    40     1     0     0
SMALL
bcc


@<TRIPOS>ATOM
      1 N3           0.0000     0.0000     0.0000 na         1 3JA      -0.274100
      2 C4           1.0840    -0.9130     4.5080 cc         1 3JA       0.370200
      3 N2           0.7920    -0.5700     5.7340 nd         1 3JA      -0.522800
      4 C7           1.3680     0.0000     0.0000 ca         1 3JA       0.491800
      5 C6          -0.4730     0.0070     1.2870 cd         1 3JA      -0.107100
      6 C9           3.1630     0.0000     1.6180 ca         1 3JA       0.686200
      7 C13          4.9290    -1.1540     4.6410 c3         1 3JA       0.136900
      8 C8           1.7890     0.0000     1.3410 ca         1 3JA      -0.313400
      9 N5           2.2960    -0.0000    -0.9570 nb         1 3JA      -0.765000
     10 N1           0.0010     0.5850     5.6960 na         1 3JA       0.062400
     11 C2          -0.1760     0.9320     4.4040 cd         1 3JA      -0.109300
     12 C3           0.4860     0.0170     3.6370 cc         1 3JA      -0.238100
     13 C5           0.5660     0.0100     2.1540 cc         1 3JA      -0.017400
     14 N4           4.0130    -0.0010     0.5940 nb         1 3JA      -0.801000
     15 C10          3.5760    -0.0010    -0.6530 ca         1 3JA       0.706900
     16 N6           3.6250    -0.0010     2.9210 nh         1 3JA      -0.713300
     17 C11          4.3290     1.2520     3.2320 c3         1 3JA       0.130300
     18 C12          4.7700     1.2340     4.6980 c3         1 3JA       0.136900
     19 O1           5.5840     0.0830     4.9320 os         1 3JA      -0.422600
     20 C14          4.4910    -1.1620     3.1740 c3         1 3JA       0.130300
     21 H1          -0.5730    -0.0040    -0.8210 hn         1 3JA       0.307700
     22 H2           1.6830    -1.7660     4.2120 h4         1 3JA       0.053100
     23 H3          -1.5190     0.0090     1.5680 h4         1 3JA       0.176000
     24 H4           5.6140    -1.9750     4.8160 h1         1 3JA       0.055700
     25 H5           4.0590    -1.2600     5.2780 h1         1 3JA       0.055700
     26 H6          -1.6210     1.2960     6.8090 h1         1 3JA       0.053700
     27 H7          -0.1760     2.3140     6.8600 h1         1 3JA       0.053700
     28 H8          -0.2200     0.7960     7.7660 h1         1 3JA       0.053700
     29 H9          -0.7420     1.7810     4.0410 h4         1 3JA       0.169000
     30 H10          4.3010    -0.0020    -1.4570 h5         1 3JA       0.059100
     31 H11          5.2000     1.3430     2.5940 h1         1 3JA       0.055450
     32 H12          3.6640     2.0910     3.0650 h1         1 3JA       0.055450
     33 H13          5.3400     2.1300     4.9140 h1         1 3JA       0.055700
     34 H14          3.8950     1.1930     5.3360 h1         1 3JA       0.055700
     35 H15          5.3640    -1.1050     2.5360 h1         1 3JA       0.055450
     36 H16          3.9420    -2.0730     2.9660 h1         1 3JA       0.055450
     37 C1          -0.5390     1.2940     6.8580 c3         1 3JA       0.064600
@<TRIPOS>BOND
     1     3     2 2   
     2     3    10 1   
     3     2    12 1   
     4    37    10 1   
     5    10    11 1   
     6     7    19 1   
     7     7    20 1   
     8    12    11 2   
     9    12    13 1   
    10    19    18 1   
    11    20    16 1   
    12    13     5 2   
    13    13     8 1   
    14     5     1 1   
    15    18    17 1   
    16    16    17 1   
    17    16     6 1   
    18     8     6 ar  
    19     8     4 ar  
    20     1     4 1   
    21     6    14 ar  
    22     4     9 ar  
    23    14    15 ar  
    24     9    15 ar  
    25     1    21 1   
    26     2    22 1   
    27     5    23 1   
    28     7    24 1   
    29     7    25 1   
    30    37    26 1   
    31    37    27 1   
    32    37    28 1   
    33    11    29 1   
    34    15    30 1   
    35    17    31 1   
    36    17    32 1   
    37    18    33 1   
    38    18    34 1   
    39    20    35 1   
    40    20    36 1   
@<TRIPOS>SUBSTRUCTURE
     1 3JA         1 TEMP              0 ****  ****    0 ROOT
