@<TRIPOS>MOLECULE
molecule
   34    36     1     0     0
SMALL
bcc


@<TRIPOS>ATOM
      1 C1           0.0000     0.0000     0.0000 ca         1 3JC       0.532600
      2 C2           1.4000     0.0000     0.0000 ca         1 3JC      -0.448200
      3 C3           2.0800     0.0000     1.2230 ca         1 3JC       0.518600
      4 C11          7.6280     1.0170     0.2390 ca         1 3JC      -0.124000
      5 C12          8.4400    -0.0990     0.1480 ca         1 3JC      -0.125000
      6 C13          7.8780    -1.3530     0.0090 ca         1 3JC      -0.124000
      7 C14          6.5030    -1.4930    -0.0380 ca         1 3JC      -0.121000
      8 C15         -0.7700    -0.0030    -1.2960 c3         1 3JC      -0.143400
      9 N1          -0.6320    -0.0020     1.1600 nb         1 3JC      -0.763000
     10 N2           1.3710    -0.0040     2.3390 nb         1 3JC      -0.767000
     11 C4           0.0440    -0.0050     2.3010 ca         1 3JC       0.964900
     12 C5           2.1490    -0.0050    -1.2650 c          1 3JC       0.589700
     13 C6           3.6410     0.2580    -1.1950 c3         1 3JC      -0.169400
     14 C7           4.1930    -0.5300    -0.0010 c3         1 3JC      -0.019400
     15 C8           5.6910    -0.3780     0.0520 ca         1 3JC      -0.086300
     16 C9           3.5810     0.0080     1.2900 c3         1 3JC      -0.131700
     17 C10          6.2540     0.8760     0.1960 ca         1 3JC      -0.121000
     18 H1           8.0690     2.0010     0.3490 ha         1 3JC       0.132000
     19 H2           9.5170     0.0110     0.1840 ha         1 3JC       0.131000
     20 H3           8.5140    -2.2270    -0.0610 ha         1 3JC       0.132000
     21 H4           6.0620    -2.4770    -0.1470 ha         1 3JC       0.130500
     22 H5          -1.8290     0.0820    -1.0870 hc         1 3JC       0.066033
     23 H6          -0.5790    -0.9280    -1.8270 hc         1 3JC       0.066033
     24 H7          -0.4540     0.8350    -1.9060 hc         1 3JC       0.066033
     25 H8          -0.9100     0.8570     3.9220 hn         1 3JC       0.447800
     26 H9          -0.9080    -0.8770     3.9180 hn         1 3JC       0.447800
     27 H10          3.8200     1.3170    -1.0500 hc         1 3JC       0.077200
     28 H11          4.1150    -0.0790    -2.1090 hc         1 3JC       0.077200
     29 H12          3.9360    -1.5770    -0.1120 hc         1 3JC       0.066700
     30 H13          3.9230     1.0240     1.4480 hc         1 3JC       0.077200
     31 H14          3.9020    -0.6130     2.1190 hc         1 3JC       0.077200
     32 H15          5.6180     1.7500     0.2670 ha         1 3JC       0.130500
     33 O1           1.5950    -0.2130    -2.3230 o          1 3JC      -0.527100
     34 N3          -0.6550    -0.0090     3.4890 nv         1 3JC      -1.062500
@<TRIPOS>BOND
     1    33    12 2
     2     8     1 1
     3    12    13 1
     4    12     2 1
     5     1     2 ar
     6     1     9 ar
     7    13    14 1
     8     2     3 ar
     9     9    11 ar
    10    14    15 1
    11    14    16 1
    12     3    16 1
    13     3    10 ar
    14    11    10 ar
    15    11    34 1
    16    15     7 ar
    17    15    17 ar
    18     7     6 ar
    19    17     4 ar
    20     6     5 ar
    21     4     5 ar
    22     4    18 1
    23     5    19 1
    24     6    20 1
    25     7    21 1
    26     8    22 1
    27     8    23 1
    28     8    24 1
    29    34    25 1
    30    34    26 1
    31    13    27 1
    32    13    28 1
    33    14    29 1
    34    16    30 1
    35    16    31 1
    36    17    32 1
@<TRIPOS>SUBSTRUCTURE
     1 3JC         1 TEMP              0 ****  ****    0 ROOT
