@<TRIPOS>MOLECULE
molecule
   45    48     1     0     0
SMALL
bcc


@<TRIPOS>ATOM
      1 CAM          0.0000     0.0000     0.0000 c3         1 3JD      -0.074400
      2 CAK          1.5310     0.0000     0.0000 c3         1 3JD      -0.078400
      3 CAL          2.0370     0.0000     1.4440 c3         1 3JD       0.155800
      4 NAP          1.5290     1.1900     2.1400 n7         1 3JD      -0.816200
      5 CAN          0.0620     1.1880     2.1960 c3         1 3JD       0.166800
      6 CAW         -0.5020     1.2220     0.7730 c3         1 3JD      -0.031400
      7 CAR         -2.0080     1.1990     0.8300 ca         1 3JD      -0.049300
      8 CAF         -2.6600     0.1370     1.4320 ca         1 3JD      -0.107500
      9 CAH         -4.0390     0.1150     1.4890 ca         1 3JD      -0.113000
     10 CAE         -2.7360     2.2400     0.2850 ca         1 3JD      -0.107500
     11 CAG         -4.1150     2.2220     0.3350 ca         1 3JD      -0.113000
     12 CAS         -4.7730     1.1590     0.9430 ca         1 3JD      -0.034200
     13 NAX         -6.1720     1.1400     0.9990 na         1 3JD       0.266700
     14 CAJ         -6.9770     2.0910     0.5000 cc         1 3JD      -0.051100
     15 NAO         -6.9390     0.1220     1.5790 nc         1 3JD      -0.246400
     16 CAV         -8.2130     0.4220     1.4570 ca         1 3JD       0.011000
     17 CAU         -8.2850     1.7100     0.7460 ca         1 3JD      -0.223000
     18 CAI         -9.5500     2.2680     0.4760 ca         1 3JD       0.065000
     19 CAC        -10.6830     1.6270     0.8610 ca         1 3JD      -0.209000
     20 CAD        -10.6650     0.4100     1.5290 ca         1 3JD      -0.013000
     21 CAT         -9.4720    -0.2210     1.8480 ca         1 3JD      -0.219600
     22 CAQ         -9.4680    -1.5110     2.5560 c          1 3JD       0.496700
     23 OAB         -8.4130    -2.0510     2.8290 o          1 3JD      -0.416100
     24 NAA        -10.6330    -2.0920     2.9020 nz         1 3JD      -0.677400
     25 H1          -0.3610    -0.9030     0.4780 hc         1 3JD       0.044200
     26 H2          -0.3610     0.0450    -1.0200 hc         1 3JD       0.044200
     27 H3           1.8920    -0.8860    -0.5080 hc         1 3JD       0.055700
     28 H4           1.8920     0.8860    -0.5080 hc         1 3JD       0.055700
     29 H5           3.1200     0.0170     1.4460 h1         1 3JD       0.036700
     30 H6           1.6830    -0.8910     1.9490 h1         1 3JD       0.036700
     31 H7           1.8980     1.2150     3.0700 hn         1 3JD       0.361800
     32 H9          -0.2780     0.2890     2.6960 h1         1 3JD       0.034200
     33 H10         -0.2780     2.0610     2.7390 h1         1 3JD       0.034200
     34 H11         -0.1690     2.1250     0.2760 hc         1 3JD       0.078700
     35 H12         -2.0870    -0.6780     1.8580 ha         1 3JD       0.153500
     36 H13         -4.5480    -0.7160     1.9620 ha         1 3JD       0.148500
     37 H14         -2.2230     3.0690    -0.1880 ha         1 3JD       0.153500
     38 H15         -4.6840     3.0390    -0.0920 ha         1 3JD       0.148500
     39 H16         -6.6580     3.0290     0.0620 h4         1 3JD       0.201000
     40 H17         -9.6190     3.2160    -0.0420 ha         1 3JD       0.155000
     41 H18        -11.6400     2.0810     0.6340 ha         1 3JD       0.156000
     42 H19        -11.6020    -0.0550     1.8120 ha         1 3JD       0.105000
     43 H20        -10.4480    -2.9560     3.3720 hn         1 3JD       0.471800
     44 H21        -11.1410    -1.4830     3.5130 hn         1 3JD       0.471800
     45 HAA3       -11.1750    -2.2680     2.0800 hn         1 3JD       0.471800
@<TRIPOS>BOND
     1    19    18 ar  
     2    19    20 ar  
     3    18    17 ar  
     4    20    21 ar  
     5    17    14 2   
     6    17    16 ar  
     7    14    13 1   
     8    21    16 ar  
     9    21    22 1   
    10    16    15 2   
    11    23    22 2   
    12    13    15 1   
    13    13    12 1   
    14    22    24 1   
    15     9    12 ar  
    16     9     8 ar  
    17    12    11 ar  
    18     8     7 ar  
    19    11    10 ar  
    20     7    10 ar  
    21     7     6 1   
    22     6     1 1   
    23     6     5 1   
    24     1     2 1   
    25     5     4 1   
    26     4     3 1   
    27     2     3 1   
    28     1    25 1   
    29     1    26 1   
    30     2    27 1   
    31     2    28 1   
    32     3    29 1   
    33     3    30 1   
    34     4    31 1   
    35     5    32 1   
    36     5    33 1   
    37     6    34 1   
    38     8    35 1   
    39     9    36 1   
    40    10    37 1   
    41    11    38 1   
    42    14    39 1   
    43    18    40 1   
    44    19    41 1   
    45    20    42 1   
    46    24    43 1   
    47    24    44 1   
    48    45    24 1   
@<TRIPOS>SUBSTRUCTURE
     1 3JD         1 TEMP              0 ****  ****    0 ROOT
