@<TRIPOS>MOLECULE
3JD
   45    48     1     0     0
SMALL
bcc


@<TRIPOS>ATOM
      1 CAM          0.0000     0.0000     0.0000 c3         1 3JD      -0.023400
      2 CAK          1.5310     0.0000     0.0000 c3         1 3JD      -0.022400
      3 CAL          2.0370     0.0000     1.4440 c3         1 3JD       0.143800
      4 NAP          1.5290     1.1900     2.1400 n7         1 3JD      -0.574200
      5 CAN          0.0620     1.1880     2.1960 c3         1 3JD       0.149800
      6 CAW         -0.5020     1.2220     0.7730 c3         1 3JD      -0.006400
      7 CAR         -2.0080     1.1990     0.8300 ca         1 3JD      -0.033300
      8 CAF         -2.6600     0.1370     1.4320 ca         1 3JD      -0.086000
      9 CAH         -4.0390     0.1150     1.4890 ca         1 3JD      -0.065000
     10 CAE         -2.7360     2.2400     0.2850 ca         1 3JD      -0.086000
     11 CAG         -4.1150     2.2220     0.3350 ca         1 3JD      -0.065000
     12 CAS         -4.7730     1.1590     0.9430 ca         1 3JD      -0.245200
     13 NAX         -6.1720     1.1400     0.9990 na         1 3JD       0.812700
     14 CAJ         -6.9770     2.0910     0.5000 cc         1 3JD      -0.243100
     15 NAO         -6.9390     0.1220     1.5790 nc         1 3JD      -0.428400
     16 CAV         -8.2130     0.4220     1.4570 ca         1 3JD       0.060000
     17 CAU         -8.2850     1.7100     0.7460 ca         1 3JD      -0.226000
     18 CAI         -9.5500     2.2680     0.4760 ca         1 3JD       0.111000
     19 CAC        -10.6830     1.6270     0.8610 ca         1 3JD      -0.185000
     20 CAD        -10.6650     0.4100     1.5290 ca         1 3JD       0.012000
     21 CAT         -9.4720    -0.2210     1.8480 ca         1 3JD      -0.243600
     22 CAQ         -9.4680    -1.5110     2.5560 c          1 3JD       0.342700
     23 OAB         -8.4130    -2.0510     2.8290 o          1 3JD      -0.427100
     24 NAA        -10.6330    -2.0920     2.9020 nz         1 3JD       0.198600
     25 H1          -0.3610    -0.9030     0.4780 hc         1 3JD       0.017200
     26 H2          -0.3610     0.0450    -1.0200 hc         1 3JD       0.017200
     27 H3           1.8920    -0.8860    -0.5080 hc         1 3JD       0.024700
     28 H4           1.8920     0.8860    -0.5080 hc         1 3JD       0.024700
     29 H5           3.1200     0.0170     1.4460 h1         1 3JD       0.009700
     30 H6           1.6830    -0.8910     1.9490 h1         1 3JD       0.009700
     31 H7           1.8980     1.2150     3.0700 hn         1 3JD       0.257800
     32 H9          -0.2780     0.2890     2.6960 h1         1 3JD       0.008200
     33 H10         -0.2780     2.0610     2.7390 h1         1 3JD       0.008200
     34 H11         -0.1690     2.1250     0.2760 hc         1 3JD       0.051700
     35 H12         -2.0870    -0.6780     1.8580 ha         1 3JD       0.125500
     36 H13         -4.5480    -0.7160     1.9620 ha         1 3JD       0.123000
     37 H14         -2.2230     3.0690    -0.1880 ha         1 3JD       0.125500
     38 H15         -4.6840     3.0390    -0.0920 ha         1 3JD       0.123000
     39 H16         -6.6580     3.0290     0.0620 h4         1 3JD       0.171000
     40 H17         -9.6190     3.2160    -0.0420 ha         1 3JD       0.113000
     41 H18        -11.6400     2.0810     0.6340 ha         1 3JD       0.127000
     42 H19        -11.6020    -0.0550     1.8120 ha         1 3JD       0.070000
     43 H20        -10.4480    -2.9560     3.3720 hn         1 3JD       0.240800
     44 H21        -11.1410    -1.4830     3.5130 hn         1 3JD       0.240800
     45 HAA3       -11.1750    -2.2680     2.0800 hn         1 3JD       0.240800
@<TRIPOS>BOND
     1     1     2 1   
     2     1     6 1   
     3     1    25 1   
     4     1    26 1   
     5     2     3 1   
     6     2    27 1   
     7     2    28 1   
     8     3     4 1   
     9     3    29 1   
    10     3    30 1   
    11     4     5 1   
    12     4    31 1   
    13     5     6 1   
    14     5    32 1   
    15     5    33 1   
    16     6     7 1   
    17     6    34 1   
    18     7     8 ar  
    19     7    10 ar  
    20     8     9 ar  
    21     8    35 1   
    22     9    12 ar  
    23     9    36 1   
    24    10    11 ar  
    25    10    37 1   
    26    11    12 ar  
    27    11    38 1   
    28    12    13 1   
    29    13    14 1   
    30    13    15 1   
    31    14    17 2   
    32    14    39 1   
    33    15    16 2   
    34    16    17 ar  
    35    16    21 ar  
    36    17    18 ar  
    37    18    19 ar  
    38    18    40 1   
    39    19    20 ar  
    40    19    41 1   
    41    20    21 ar  
    42    20    42 1   
    43    21    22 1   
    44    22    23 2   
    45    22    24 1   
    46    24    43 1   
    47    24    44 1   
    48    24    45 1   
@<TRIPOS>SUBSTRUCTURE
     1 3JD         1 TEMP              0 ****  ****    0 ROOT
