@<TRIPOS>MOLECULE
3JE
   47    50     1     0     0
SMALL
bcc


@<TRIPOS>ATOM
      1 C27        -0.3860    0.2690   -0.0060 ca        1 3JE     -0.065500
      2 C26         1.0040    0.1980   -0.0460 ca        1 3JE     -0.133000
      3 C25         1.7360    0.0710    1.1360 ca        1 3JE     -0.067000
      4 C24         1.0770    0.0150    2.3660 ca        1 3JE     -0.133000
      5 C23        -0.3120    0.0850    2.4210 ca        1 3JE     -0.065500
      6 C22        -1.0540    0.2130    1.2320 ca        1 3JE     -0.103000
      7 C21        -2.4550    0.2840    1.2800 cg        1 3JE      0.243000
      8 C20        -3.6590    0.3440    1.3190 c1        1 3JE     -0.706500
      9 P7         -5.2170    0.4130    1.3700 p5        1 3JE      1.893000
     10 C6         -5.8140   -0.5730    0.2670 ca        1 3JE     -0.596500
     11 C5         -6.9620   -0.2460   -0.4640 ca        1 3JE     -0.024667
     12 C4         -7.4690   -1.1070   -1.4310 ca        1 3JE     -0.142167
     13 C3         -6.8260   -2.3220   -1.6830 ca        1 3JE     -0.041000
     14 C2         -5.6790   -2.6660   -0.9630 ca        1 3JE     -0.142167
     15 C1         -5.1840   -1.7950    0.0010 ca        1 3JE     -0.024667
     16 C14        -5.7030   -0.0290    2.8250 ca        1 3JE     -0.596500
     17 C19        -5.0010    0.4050    3.9570 ca        1 3JE     -0.024667
     18 C18        -5.3970    0.0300    5.2360 ca        1 3JE     -0.142167
     19 C17        -6.5130   -0.7940    5.4020 ca        1 3JE     -0.041000
     20 C16        -7.2250   -1.2360    4.2840 ca        1 3JE     -0.142167
     21 C15        -6.8180   -0.8520    3.0100 ca        1 3JE     -0.024667
     22 C8         -5.6870    1.9090    1.0760 ca        1 3JE     -0.596500
     23 C13        -6.8160    2.4530    1.7000 ca        1 3JE     -0.024667
     24 C12        -7.2190    3.7600    1.4470 ca        1 3JE     -0.142167
     25 C11        -6.4900    4.5480    0.5530 ca        1 3JE     -0.041000
     26 C10        -5.3620    4.0220   -0.0810 ca        1 3JE     -0.142167
     27 C9         -4.9700    2.7140    0.1830 ca        1 3JE     -0.024667
     28 H1         -0.9610    0.3670   -0.9390 ha        1 3JE      0.146000
     29 H2          1.5250    0.2410   -1.0150 ha        1 3JE      0.158000
     30 H3          2.8360    0.0150    1.0980 ha        1 3JE      0.157000
     31 H4          1.6570   -0.0850    3.2970 ha        1 3JE      0.158000
     32 H5         -0.8290    0.0390    3.3920 ha        1 3JE      0.146000
     33 H6         -7.4610    0.7180   -0.2650 ha        1 3JE      0.143500
     34 H7         -8.3720   -0.8330   -1.9980 ha        1 3JE      0.158667
     35 H8         -7.2230   -3.0080   -2.4500 ha        1 3JE      0.158000
     36 H9         -5.1710   -3.6230   -1.1590 ha        1 3JE      0.158667
     37 H10        -4.2770   -2.0580    0.5710 ha        1 3JE      0.143500
     38 H11        -4.1210    1.0540    3.8170 ha        1 3JE      0.143500
     39 H12        -4.8350    0.3810    6.1160 ha        1 3JE      0.158667
     40 H13        -6.8310   -1.0970    6.4130 ha        1 3JE      0.158000
     41 H14        -8.1040   -1.8870    4.4110 ha        1 3JE      0.158667
     42 H15        -7.3730   -1.2030    2.1230 ha        1 3JE      0.143500
     43 H16        -7.3820    1.8270    2.4110 ha        1 3JE      0.143500
     44 H17        -8.1070    4.1730    1.9500 ha        1 3JE      0.158667
     45 H18        -6.8030    5.5860    0.3500 ha        1 3JE      0.158000
     46 H19        -4.7850    4.6410   -0.7860 ha        1 3JE      0.158667
     47 H20        -4.0790    2.2930   -0.3110 ha        1 3JE      0.143500
@<TRIPOS>BOND
     1    1    2 ar  
     2    1    6 ar  
     3    1   28 1   
     4    2    3 ar  
     5    2   29 1   
     6    3    4 ar  
     7    3   30 1   
     8    4    5 ar  
     9    4   31 1   
    10    5    6 ar  
    11    5   32 1   
    12    6    7 1   
    13    7    8 3   
    14    8    9 1   
    15    9   10 1   
    16    9   16 1   
    17    9   22 1   
    18   10   11 ar  
    19   10   15 ar  
    20   11   12 ar  
    21   11   33 1   
    22   12   13 ar  
    23   12   34 1   
    24   13   14 ar  
    25   13   35 1   
    26   14   15 ar  
    27   14   36 1   
    28   15   37 1   
    29   16   17 ar  
    30   16   21 ar  
    31   17   18 ar  
    32   17   38 1   
    33   18   19 ar  
    34   18   39 1   
    35   19   20 ar  
    36   19   40 1   
    37   20   21 ar  
    38   20   41 1   
    39   21   42 1   
    40   22   23 ar  
    41   22   27 ar  
    42   23   24 ar  
    43   23   43 1   
    44   24   25 ar  
    45   24   44 1   
    46   25   26 ar  
    47   25   45 1   
    48   26   27 ar  
    49   26   46 1   
    50   27   47 1   
@<TRIPOS>SUBSTRUCTURE
     1 3JE         1 TEMP              0 ****  ****    0 ROOT
