@<TRIPOS>MOLECULE
molecule
   47    50     1     0     0
SMALL
bcc


@<TRIPOS>ATOM
      1 C27          0.0000     0.0000     0.0000 ca         1 3JE      -0.082000
      2 C26          1.3790     0.0000     0.0000 ca         1 3JE      -0.128500
      3 C25          2.0740     0.0000     1.1960 ca         1 3JE      -0.047000
      4 C24          1.3910    -0.0010     2.3990 ca         1 3JE      -0.128500
      5 C23          0.0110    -0.0010     2.4130 ca         1 3JE      -0.082000
      6 C22         -0.6940    -0.0000     1.2100 ca         1 3JE      -0.095000
      7 C21         -2.1270     0.0010     1.2170 cg         1 3JE       0.228000
      8 C20         -3.3010     0.0210     1.2280 c1         1 3JE      -0.547500
      9 P7          -4.8910    -0.4970     1.2600 p5         1 3JE       1.135000
     10 C6          -5.9280     0.3220     2.4840 ca         1 3JE      -0.292833
     11 C5          -6.0200     1.6770     2.6540 ca         1 3JE      -0.070500
     12 C4          -6.7050     2.2250     3.4620 ca         1 3JE      -0.119167
     13 C3          -7.4420     1.6020     4.2730 ca         1 3JE      -0.069667
     14 C2          -7.5250     0.0230     4.2920 ca         1 3JE      -0.119167
     15 C1          -6.8140    -0.5520     3.4520 ca         1 3JE      -0.070500
     16 C14         -5.6890     0.0640    -0.4060 ca         1 3JE      -0.292833
     17 C19         -6.8510    -0.1760    -0.6670 ca         1 3JE      -0.070500
     18 C18         -7.3340     0.3180    -1.9930 ca         1 3JE      -0.119167
     19 C17         -6.4910     1.0250    -2.8940 ca         1 3JE      -0.069667
     20 C16         -5.2300     1.3170    -2.6740 ca         1 3JE      -0.119167
     21 C15         -4.9860     0.7220    -1.2990 ca         1 3JE      -0.070500
     22 C8          -5.2480    -2.4410     1.3190 ca         1 3JE      -0.292833
     23 C13         -4.1630    -3.1590     2.2410 ca         1 3JE      -0.070500
     24 C12         -4.3090    -4.5660     2.3670 ca         1 3JE      -0.119167
     25 C11         -5.4350    -4.9020     1.5910 ca         1 3JE      -0.069667
     26 C10         -6.3070    -4.1840     0.8280 ca         1 3JE      -0.119167
     27 C9          -6.2510    -2.9200     0.6580 ca         1 3JE      -0.070500
     28 H1          -0.4340    -0.1190    -0.9850 ha         1 3JE       0.144000
     29 H2           1.7400     0.2170    -0.9980 ha         1 3JE       0.158000
     30 H3           3.1260     0.1940     1.0240 ha         1 3JE       0.158000
     31 H4           1.7170     0.3250     3.3800 ha         1 3JE       0.158000
     32 H5          -0.5970    -0.0020     3.3100 ha         1 3JE       0.144000
     33 H6          -5.8260     2.2740     1.7710 ha         1 3JE       0.135167
     34 H7          -6.7620     3.3010     3.3530 ha         1 3JE       0.165167
     35 H8          -8.0410     2.0770     5.0400 ha         1 3JE       0.136667
     36 H9          -8.0610    -0.3120     5.1720 ha         1 3JE       0.165167
     37 H10         -7.0520    -1.5690     3.1660 ha         1 3JE       0.135167
     38 H11         -7.5560    -0.6810    -0.0180 ha         1 3JE       0.135167
     39 H12         -8.3110     0.0430    -2.3720 ha         1 3JE       0.165167
     40 H13         -7.0200     1.5290    -3.6930 ha         1 3JE       0.136667
     41 H14         -4.4720     1.9210    -3.1580 ha         1 3JE       0.165167
     42 H15         -3.9050     0.7940    -1.2710 ha         1 3JE       0.135167
     43 H16         -3.2740    -2.6830     2.6370 ha         1 3JE       0.135167
     44 H17         -3.5730    -4.9800     3.0460 ha         1 3JE       0.165167
     45 H18         -5.9120    -5.8590     1.7650 ha         1 3JE       0.136667
     46 H19         -6.8400    -4.9500     0.2780 ha         1 3JE       0.165167
     47 H20         -7.1560    -2.3790     0.4110 ha         1 3JE       0.135167
@<TRIPOS>BOND
     1    13    14 ar
     2    13    12 ar
     3    14    15 ar
     4    12    11 ar
     5    15    10 ar
     6    11    10 ar
     7    10     9 1
     8    17    18 ar
     9    17    16 ar
    10    23    24 ar
    11    23    22 ar
    12    18    19 ar
    13    24    25 ar
    14     9    16 1
    15     9    22 1
    16     9     8 1
    17    16    21 ar
    18    19    20 ar
    19    22    27 ar
    20    21    20 ar
    21     8     7 3
    22    25    26 ar
    23     7     6 1
    24    27    26 ar
    25     1     6 ar
    26     1     2 ar
    27     6     5 ar
    28     2     3 ar
    29     5     4 ar
    30     3     4 ar
    31     1    28 1
    32     2    29 1
    33     3    30 1
    34     4    31 1
    35     5    32 1
    36    11    33 1
    37    12    34 1
    38    13    35 1
    39    14    36 1
    40    15    37 1
    41    17    38 1
    42    18    39 1
    43    19    40 1
    44    20    41 1
    45    21    42 1
    46    23    43 1
    47    24    44 1
    48    25    45 1
    49    26    46 1
    50    27    47 1
@<TRIPOS>SUBSTRUCTURE
     1 3JE         1 TEMP              0 ****  ****    0 ROOT
