@<TRIPOS>MOLECULE
molecule
   65    67     1     0     0
SMALL
bcc


@<TRIPOS>ATOM
      1 CAA          0.0000     0.0000     0.0000 c3         1 3JF      -0.169100
      2 CAV          1.5070     0.0000     0.0000 c          1 3JF       0.658100
      3 OAF          2.1140     0.0000     1.0500 o          1 3JF      -0.621100
      4 NAT          2.1810     0.0030    -1.1670 ns         1 3JF      -0.570900
      5 CBE          3.6460     0.0030    -1.1670 c3         1 3JF       0.060700
      6 CBG          4.1570    -1.4330    -1.0430 c3         1 3JF      -0.071000
      7 CAD          3.5610    -2.2860    -2.1660 c3         1 3JF      -0.089433
      8 CAE          5.6830    -1.4430    -1.1500 c3         1 3JF      -0.089433
      9 CAC          3.7370    -2.0090     0.3110 c3         1 3JF      -0.089433
     10 CAX          4.1480     0.6060    -2.4540 c          1 3JF       0.691100
     11 OAH          3.4990     0.4890    -3.4720 o          1 3JF      -0.603100
     12 N            5.3180     1.2730    -2.4740 n          1 3JF      -0.468800
     13 CD2          6.1600     1.5680    -1.2990 c3         1 3JF       0.080000
     14 CG           6.9890     2.8110    -1.7070 c3         1 3JF       0.128100
     15 OD1          6.2260     4.0090    -1.5490 oh         1 3JF      -0.589800
     16 CB           7.2660     2.5220    -3.2060 c3         1 3JF      -0.105400
     17 CA           5.9710     1.8230    -3.6710 c3         1 3JF       0.048700
     18 C            6.3060     0.7140    -4.6360 c          1 3JF       0.646100
     19 O            6.0190    -0.4330    -4.3640 o          1 3JF      -0.590100
     20 NAS          6.9220     0.9970    -5.8000 ns         1 3JF      -0.585900
     21 CAO          7.2470    -0.0810    -6.7370 c3         1 3JF       0.161300
     22 CAY          7.9280     0.4980    -7.9520 ca         1 3JF      -0.115300
     23 CAK          9.3060     0.6220    -7.9760 ca         1 3JF      -0.112500
     24 CAM          9.9350     1.1500    -9.0830 ca         1 3JF      -0.116500
     25 CAJ          7.1730     0.8970    -9.0400 ca         1 3JF      -0.112500
     26 CAL          7.7900     1.4270   -10.1540 ca         1 3JF      -0.116500
     27 CBA          9.1780     1.5600   -10.1820 ca         1 3JF       0.004000
     28 CBB          9.8460     2.1280   -11.3740 cc         1 3JF      -0.104400
     29 SAU         11.2600     1.4610   -12.1870 ss         1 3JF      -0.199300
     30 CAN         11.2220     2.7400   -13.3220 cd         1 3JF       0.441300
     31 NAR         10.2400     3.5390   -13.0650 nc         1 3JF      -0.675000
     32 CAZ          9.4770     3.2450   -12.0350 cc         1 3JF       0.382600
     33 CAB          8.2990     4.0890   -11.6240 c3         1 3JF      -0.117400
     34 H1          -0.3610    -0.7520    -0.6920 hc         1 3JF       0.061367
     35 H2          -0.3610    -0.2230     0.9970 hc         1 3JF       0.061367
     36 H3          -0.3610     0.9750    -0.3050 hc         1 3JF       0.061367
     37 H4           1.6810     0.0560    -2.0330 hn         1 3JF       0.335500
     38 H5           4.0070     0.5880    -0.3290 h1         1 3JF       0.082700
     39 H6           3.9520    -3.2940    -2.1000 hc         1 3JF       0.042367
     40 H7           3.8270    -1.8570    -3.1250 hc         1 3JF       0.042367
     41 H8           2.4820    -2.3090    -2.0680 hc         1 3JF       0.042367
     42 H9           5.9810    -1.0330    -2.1070 hc         1 3JF       0.042367
     43 H10          6.1050    -0.8430    -0.3530 hc         1 3JF       0.042367
     44 H11          6.0450    -2.4610    -1.0650 hc         1 3JF       0.042367
     45 H12          3.9730    -1.2990     1.0940 hc         1 3JF       0.042367
     46 H13          4.2700    -2.9350     0.4910 hc         1 3JF       0.042367
     47 H14          2.6710    -2.2010     0.3070 hc         1 3JF       0.042367
     48 H15          6.8160     0.7320    -1.0880 h1         1 3JF       0.066200
     49 H16          5.5400     1.7950    -0.4400 h1         1 3JF       0.066200
     50 H17          7.9150     2.8570    -1.1470 h1         1 3JF       0.050700
     51 H18          6.7140     4.6250    -1.0270 ho         1 3JF       0.406000
     52 H19          7.4170     3.4460    -3.7510 hc         1 3JF       0.066200
     53 H20          8.1170     1.8610    -3.3160 hc         1 3JF       0.066200
     54 H21          5.3160     2.5440    -4.1450 h1         1 3JF       0.086700
     55 H22          7.1190     1.9480    -6.0430 hn         1 3JF       0.315500
     56 H23          6.3370    -0.5840    -7.0390 h1         1 3JF       0.061700
     57 H24          7.9090    -0.7910    -6.2560 h1         1 3JF       0.061700
     58 H25          9.8920     0.3030    -7.1220 ha         1 3JF       0.139000
     59 H26         11.0140     1.2490    -9.1000 ha         1 3JF       0.140500
     60 H27          6.0950     0.7930    -9.0170 ha         1 3JF       0.139000
     61 H28          7.1970     1.7410   -11.0040 ha         1 3JF       0.140500
     62 H29         11.9230     2.8640   -14.1380 h5         1 3JF       0.062100
     63 H30          8.3660     5.0590   -12.1010 hc         1 3JF       0.052367
     64 H31          7.3810     3.6000   -11.9280 hc         1 3JF       0.052367
     65 H32          8.3030     4.2140   -10.5480 hc         1 3JF       0.052367
@<TRIPOS>BOND
     1    31    30 2   
     2    31    32 1   
     3    30    29 1   
     4    33    32 1   
     5    32    28 2   
     6    29    28 1   
     7    28    27 1   
     8    27    26 ar  
     9    27    24 ar  
    10    26    25 ar  
    11    24    23 ar  
    12    25    22 ar  
    13    23    22 ar  
    14    22    21 1   
    15    21    20 1   
    16    20    18 1   
    17    16    17 1   
    18    16    14 1   
    19    18    19 2   
    20    18    17 1   
    21    17    12 1   
    22    14    15 1   
    23    14    13 1   
    24    12    13 1   
    25    12    10 1   
    26    11    10 2   
    27    10     5 1   
    28     8     6 1   
    29     5     6 1   
    30     5     4 1   
    31     9     6 1   
    32     6     7 1   
    33     4     2 1   
    34     2     3 2   
    35     2     1 1   
    36     1    34 1   
    37     1    35 1   
    38     1    36 1   
    39     4    37 1   
    40     5    38 1   
    41     7    39 1   
    42     7    40 1   
    43     7    41 1   
    44     8    42 1   
    45     8    43 1   
    46     8    44 1   
    47     9    45 1   
    48     9    46 1   
    49     9    47 1   
    50    13    48 1   
    51    13    49 1   
    52    14    50 1   
    53    15    51 1   
    54    16    52 1   
    55    16    53 1   
    56    17    54 1   
    57    20    55 1   
    58    21    56 1   
    59    21    57 1   
    60    23    58 1   
    61    24    59 1   
    62    25    60 1   
    63    26    61 1   
    64    30    62 1   
    65    33    63 1   
    66    33    64 1   
    67    33    65 1   
@<TRIPOS>SUBSTRUCTURE
     1 3JF         1 TEMP              0 ****  ****    0 ROOT
