@<TRIPOS>MOLECULE
3JG
   56    58     1     0     0
SMALL
bcc


@<TRIPOS>ATOM
      1 CAA         1.4730   -0.9290   -0.4220 c3        1 3JG     -0.096433
      2 CBB         2.8920   -0.4370   -0.1490 c3        1 3JG     -0.041000
      3 CAB         3.0570   -0.2090    1.3440 c3        1 3JG     -0.096433
      4 CAC         3.8780   -1.4910   -0.6280 c3        1 3JG     -0.096433
      5 CAN         3.0720    0.8710   -0.9240 c3        1 3JG     -0.138400
      6 CAT         4.3830    1.5840   -0.7050 c         1 3JG      0.683100
      7 OAD         5.3940    1.0730   -0.1750 o         1 3JG     -0.649100
      8 N           4.4770    2.9410   -1.0610 n         1 3JG     -0.482800
      9 CD2         3.4590    3.5990   -1.8690 c3        1 3JG      0.067000
     10 CG          4.1660    4.6160   -2.7980 c3        1 3JG      0.134100
     11 OD1         4.0270    4.1160   -4.1130 oh        1 3JG     -0.587800
     12 CB          5.6400    4.6320   -2.3640 c3        1 3JG     -0.128400
     13 CA          5.7810    3.5480   -1.2740 c3        1 3JG      0.040700
     14 C           6.3500    4.1670    0.0150 c         1 3JG      0.534100
     15 O           6.7060    5.3230    0.1810 o         1 3JG     -0.419100
     16 NAR         6.5040    3.2100    1.1650 n4        1 3JG     -0.677800
     17 CAM         7.5110    3.6170    2.2000 c3        1 3JG      0.174100
     18 CAV         8.8940    3.2270    1.8100 ca        1 3JG     -0.189300
     19 CAH         9.8050    4.1990    1.3820 ca        1 3JG     -0.094500
     20 CAJ        11.1110    3.8410    1.0650 ca        1 3JG     -0.113500
     21 CAG         9.2990    1.8900    1.9170 ca        1 3JG     -0.094500
     22 CAI        10.6020    1.5270    1.5970 ca        1 3JG     -0.113500
     23 CAW        11.5220    2.5010    1.1680 ca        1 3JG     -0.053500
     24 CAX        12.8660    2.1150    0.8440 cc        1 3JG      0.156900
     25 OAS        13.7570    3.1140    0.4010 os        1 3JG     -0.380800
     26 CAK        14.9630    2.4450    0.1740 cc        1 3JG      0.518300
     27 NAQ        14.8860    1.1420    0.4350 nd        1 3JG     -0.660000
     28 CAL        13.5740    0.9120    0.8600 cd        1 3JG      0.292900
     29 H1          1.3040   -1.9010    0.1020 hc        1 3JG      0.045367
     30 H2          0.7220   -0.1910   -0.0510 hc        1 3JG      0.045367
     31 H3          1.3160   -1.0850   -1.5160 hc        1 3JG      0.045367
     32 H4          2.8420   -1.1550    1.8970 hc        1 3JG      0.045367
     33 H5          2.3490    0.5770    1.7010 hc        1 3JG      0.045367
     34 H6          4.1020    0.1070    1.5780 hc        1 3JG      0.045367
     35 H7          3.6980   -2.4510   -0.0860 hc        1 3JG      0.045367
     36 H8          3.7510   -1.6740   -1.7220 hc        1 3JG      0.045367
     37 H9          4.9280   -1.1660   -0.4350 hc        1 3JG      0.045367
     38 H10         3.0010    0.6470   -2.0260 hc        1 3JG      0.086700
     39 H11         2.2250    1.5600   -0.6530 hc        1 3JG      0.086700
     40 H12         2.7470    4.1320   -1.1810 h1        1 3JG      0.085700
     41 H13         2.8850    2.8600   -2.4950 h1        1 3JG      0.085700
     42 H14         3.7010    5.6330   -2.7050 h1        1 3JG      0.074700
     43 H15         4.2310    4.8370   -4.7230 ho        1 3JG      0.425000
     44 H16         6.3030    4.3750   -3.2290 hc        1 3JG      0.095200
     45 H17         5.9310    5.6420   -1.9830 hc        1 3JG      0.095200
     46 H18         6.5370    2.7640   -1.5950 h1        1 3JG      0.113700
     47 H19         6.7670    2.2820    0.7780 hn        1 3JG      0.475300
     48 H20         7.2190    3.1010    3.1610 hx        1 3JG      0.111700
     49 H21         7.4320    4.7340    2.3470 hx        1 3JG      0.111700
     50 H22         9.4940    5.2540    1.3030 ha        1 3JG      0.144500
     51 H23        11.8340    4.6060    0.7360 ha        1 3JG      0.164000
     52 H24         8.5930    1.1220    2.2690 ha        1 3JG      0.144500
     53 H25        10.9190    0.4760    1.6860 ha        1 3JG      0.164000
     54 H26        15.7950    3.0600   -0.1790 h5        1 3JG      0.102100
     55 H27        13.2410   -0.0880    1.1430 h4        1 3JG      0.061100
     56 HAR2        5.5820    3.1060    1.6050 hn        1 3JG      0.475300
@<TRIPOS>BOND
     1    1    2 1   
     2    1   29 1   
     3    1   30 1   
     4    1   31 1   
     5    2    3 1   
     6    2    4 1   
     7    2    5 1   
     8    3   32 1   
     9    3   33 1   
    10    3   34 1   
    11    4   35 1   
    12    4   36 1   
    13    4   37 1   
    14    5    6 1   
    15    5   38 1   
    16    5   39 1   
    17    6    7 2   
    18    6    8 1   
    19    8    9 1   
    20    8   13 1   
    21    9   10 1   
    22    9   40 1   
    23    9   41 1   
    24   10   11 1   
    25   10   12 1   
    26   10   42 1   
    27   11   43 1   
    28   12   13 1   
    29   12   44 1   
    30   12   45 1   
    31   13   14 1   
    32   13   46 1   
    33   14   15 2   
    34   14   16 1   
    35   16   17 1   
    36   16   47 1   
    37   16   56 1   
    38   17   18 1   
    39   17   48 1   
    40   17   49 1   
    41   18   19 ar  
    42   18   21 ar  
    43   19   20 ar  
    44   19   50 1   
    45   20   23 ar  
    46   20   51 1   
    47   21   22 ar  
    48   21   52 1   
    49   22   23 ar  
    50   22   53 1   
    51   23   24 1   
    52   24   25 1   
    53   24   28 2   
    54   25   26 1   
    55   26   27 2   
    56   26   54 1   
    57   27   28 1   
    58   28   55 1   
@<TRIPOS>SUBSTRUCTURE
     1 3JG         1 TEMP              0 ****  ****    0 ROOT
