@<TRIPOS>MOLECULE
3JH
   84    86     1     0     0
SMALL
bcc


@<TRIPOS>ATOM
      1 CD1          0.0000     0.0000     0.0000 c3         1 3JH       0.003400
      2 CG           1.5300     0.0000     0.0000 c3         1 3JH      -0.054700
      3 CD2          2.0400     0.0000     1.4430 c3         1 3JH       0.003400
      4 CB           2.0410    -1.2490    -0.7210 c3         1 3JH      -0.059400
      5 CA           3.5650    -1.1880    -0.8300 c3         1 3JH      -0.038300
      6 N            3.9480    -0.0630    -1.6860 ns         1 3JH      -0.186900
      7 CAA          3.5280    -0.0160    -2.9660 c          1 3JH       0.578100
      8 OAC          2.8330    -0.9060    -3.4090 o          1 3JH      -0.615100
      9 CAD          3.9230     1.1420    -3.8470 c3         1 3JH      -0.067100
     10 C            4.0770    -2.4720    -1.4290 c          1 3JH       0.554100
     11 O            4.3710    -2.5180    -2.6050 o          1 3JH      -0.622100
     12 NAH          4.2110    -3.5690    -0.6580 ns         1 3JH      -0.176900
     13 CAI          4.7100    -4.8190    -1.2400 c3         1 3JH      -0.048300
     14 CAJ          6.2390    -4.8080    -1.2350 c3         1 3JH      -0.064000
     15 CAL          6.7600    -6.1540    -1.7440 c3         1 3JH      -0.021100
     16 CAM          6.7460    -3.6880    -2.1470 c3         1 3JH      -0.021100
     17 CAK          6.7430    -4.5730     0.1900 c3         1 3JH      -0.021100
     18 CAQ          4.2110    -5.9860    -0.4270 c          1 3JH       0.618100
     19 OAR          4.0160    -5.8560     0.7620 o          1 3JH      -0.645100
     20 NAS          3.9840    -7.1730    -1.0230 n          1 3JH      -0.116800
     21 CAW          4.0900    -7.4440    -2.4680 c3         1 3JH       0.005000
     22 CAV          3.1740    -8.6700    -2.7100 c3         1 3JH       0.183100
     23 OAZ          1.8060    -8.2740    -2.8140 oh         1 3JH      -0.571800
     24 CAU          3.4170    -9.4990    -1.4210 c3         1 3JH      -0.053400
     25 CAT          3.5940    -8.4140    -0.3380 c3         1 3JH      -0.033300
     26 CAX          4.6680    -8.8300     0.6340 c          1 3JH       0.561100
     27 OAY          5.6670    -8.1540     0.7600 o          1 3JH      -0.631100
     28 NBA          4.5180    -9.9540     1.3630 ns         1 3JH      -0.195900
     29 CBB          5.5620   -10.3590     2.3070 c3         1 3JH       0.111300
     30 CBC          5.1540   -11.6390     2.9900 ca         1 3JH      -0.124300
     31 CBH          5.5050   -12.8560     2.4360 ca         1 3JH      -0.082000
     32 CBG          5.1340   -14.0320     3.0560 ca         1 3JH      -0.093000
     33 CBD          4.4340   -11.5900     4.1710 ca         1 3JH      -0.082000
     34 CBE          4.0580   -12.7580     4.8010 ca         1 3JH      -0.093000
     35 CBF          4.4040   -13.9900     4.2440 ca         1 3JH       0.014000
     36 CBI          4.0030   -15.2470     4.9140 cc         1 3JH      -0.056400
     37 SBM          5.0420   -16.6350     5.2250 ss         1 3JH      -0.302300
     38 CBL          3.7400   -17.4570     5.9660 cc         1 3JH       0.463300
     39 NBK          2.6780   -16.7230     5.9500 nd         1 3JH      -0.551000
     40 CBJ          2.7760   -15.5320     5.4020 cd         1 3JH       0.330600
     41 CBN          1.6180   -14.5710     5.3170 c3         1 3JH      -0.020400
     42 H1          -0.3610    -0.8810     0.5160 hc         1 3JH       0.003700
     43 H2          -0.3610     0.8880     0.5050 hc         1 3JH       0.003700
     44 H3          -0.3610    -0.0070    -1.0210 hc         1 3JH       0.003700
     45 H4           1.8910     0.8850    -0.5110 hc         1 3JH       0.025700
     46 H5           1.8570    -0.9690     1.8900 hc         1 3JH       0.003700
     47 H6           3.1030     0.2060     1.4500 hc         1 3JH       0.003700
     48 H7           1.5200     0.7630     2.0090 hc         1 3JH       0.003700
     49 H8           1.7540    -2.1320    -0.1610 hc         1 3JH       0.048700
     50 H9           1.6090    -1.2960    -1.7130 hc         1 3JH       0.048700
     51 H10          3.9930    -1.0530     0.1560 h1         1 3JH       0.040700
     52 H11          4.5510     0.6530    -1.3310 hn         1 3JH       0.168500
     53 H12          3.5240     2.0610    -3.4360 hc         1 3JH       0.020367
     54 H13          3.5250     0.9890    -4.8430 hc         1 3JH       0.020367
     55 H14          5.0030     1.2070    -3.8960 hc         1 3JH       0.020367
     56 H15          3.9320    -3.5420     0.3030 hn         1 3JH       0.195500
     57 H16          4.3530    -4.9100    -2.2590 h1         1 3JH       0.066700
     58 H17          6.4110    -6.3170    -2.7560 hc         1 3JH       0.016922
     59 H18          6.3950    -6.9480    -1.1030 hc         1 3JH       0.016922
     60 H19          7.8430    -6.1500    -1.7310 hc         1 3JH       0.016922
     61 H20          7.8010    -3.8330    -2.3440 hc         1 3JH       0.016922
     62 H21          6.5970    -2.7320    -1.6600 hc         1 3JH       0.016922
     63 H22          6.1980    -3.7080    -3.0810 hc         1 3JH       0.016922
     64 H23          7.8230    -4.6590     0.2100 hc         1 3JH       0.016922
     65 H24          6.4530    -3.5810     0.5160 hc         1 3JH       0.016922
     66 H25          6.3100    -5.3120     0.8530 hc         1 3JH       0.016922
     67 H26          3.7350    -6.5930    -3.0360 h1         1 3JH       0.044200
     68 H27          5.1130    -7.6810    -2.7320 h1         1 3JH       0.044200
     69 H28          3.4930    -9.2200    -3.5860 h1         1 3JH       0.013700
     70 H29          1.4270    -8.6530    -3.5900 ho         1 3JH       0.394000
     71 H30          4.3170   -10.0940    -1.5150 hc         1 3JH       0.033700
     72 H31          2.5580   -10.1210    -1.2010 hc         1 3JH       0.033700
     73 H32          2.6570    -8.2640     0.1850 h1         1 3JH       0.054700
     74 H33          3.6780   -10.4920     1.2850 hn         1 3JH       0.176500
     75 H34          5.6990    -9.5820     3.0490 h1         1 3JH       0.031700
     76 H35          6.4910   -10.5160     1.7730 h1         1 3JH       0.031700
     77 H36          6.0720   -12.8870     1.5140 ha         1 3JH       0.111500
     78 H37          5.4080   -14.9860     2.6200 ha         1 3JH       0.117000
     79 H38          4.1650   -10.6330     4.6010 ha         1 3JH       0.111500
     80 H39          3.4920   -12.7190     5.7240 ha         1 3JH       0.117000
     81 H40          3.7970   -18.4530     6.3870 h5         1 3JH       0.026100
     82 H41          1.5930   -14.1220     4.3320 hc         1 3JH       0.016033
     83 H42          0.6920   -15.1050     5.4940 hc         1 3JH       0.016033
     84 H43          1.7360   -13.7960     6.0640 hc         1 3JH       0.016033
@<TRIPOS>BOND
     1     1     2 1   
     2     1    42 1   
     3     1    43 1   
     4     1    44 1   
     5     2     3 1   
     6     2     4 1   
     7     2    45 1   
     8     3    46 1   
     9     3    47 1   
    10     3    48 1   
    11     4     5 1   
    12     4    49 1   
    13     4    50 1   
    14     5     6 1   
    15     5    10 1   
    16     5    51 1   
    17     6     7 1   
    18     6    52 1   
    19     7     8 2   
    20     7     9 1   
    21     9    53 1   
    22     9    54 1   
    23     9    55 1   
    24    10    11 2   
    25    10    12 1   
    26    12    13 1   
    27    12    56 1   
    28    13    14 1   
    29    13    18 1   
    30    13    57 1   
    31    14    15 1   
    32    14    16 1   
    33    14    17 1   
    34    15    58 1   
    35    15    59 1   
    36    15    60 1   
    37    16    61 1   
    38    16    62 1   
    39    16    63 1   
    40    17    64 1   
    41    17    65 1   
    42    17    66 1   
    43    18    19 2   
    44    18    20 1   
    45    20    21 1   
    46    20    25 1   
    47    21    22 1   
    48    21    67 1   
    49    21    68 1   
    50    22    23 1   
    51    22    24 1   
    52    22    69 1   
    53    23    70 1   
    54    24    25 1   
    55    24    71 1   
    56    24    72 1   
    57    25    26 1   
    58    25    73 1   
    59    26    27 2   
    60    26    28 1   
    61    28    29 1   
    62    28    74 1   
    63    29    30 1   
    64    29    75 1   
    65    29    76 1   
    66    30    31 ar  
    67    30    33 ar  
    68    31    32 ar  
    69    31    77 1   
    70    32    35 ar  
    71    32    78 1   
    72    33    34 ar  
    73    33    79 1   
    74    34    35 ar  
    75    34    80 1   
    76    35    36 1   
    77    36    37 1   
    78    36    40 2   
    79    37    38 1   
    80    38    39 2   
    81    38    81 1   
    82    39    40 1   
    83    40    41 1   
    84    41    82 1   
    85    41    83 1   
    86    41    84 1   
@<TRIPOS>SUBSTRUCTURE
     1 3JH         1 TEMP              0 ****  ****    0 ROOT
