@<TRIPOS>MOLECULE
molecule
   84    86     1     0     0
SMALL
bcc


@<TRIPOS>ATOM
      1 CD1          0.0000     0.0000     0.0000 c3         1 3JH      -0.089600
      2 CG           1.5300     0.0000     0.0000 c3         1 3JH      -0.076700
      3 CD2          2.0400     0.0000     1.4430 c3         1 3JH      -0.089600
      4 CB           2.0410    -1.2490    -0.7210 c3         1 3JH      -0.094400
      5 CA           3.5650    -1.1880    -0.8300 c3         1 3JH       0.054700
      6 N            3.9480    -0.0630    -1.6860 ns         1 3JH      -0.580900
      7 CAA          3.5280    -0.0160    -2.9660 c          1 3JH       0.664100
      8 OAC          2.8330    -0.9060    -3.4090 o          1 3JH      -0.582100
      9 CAD          3.9230     1.1420    -3.8470 c3         1 3JH      -0.168100
     10 C            4.0770    -2.4720    -1.4290 c          1 3JH       0.644100
     11 O            4.3710    -2.5180    -2.6050 o          1 3JH      -0.583100
     12 NAH          4.2110    -3.5690    -0.6580 ns         1 3JH      -0.573900
     13 CAI          4.7100    -4.8190    -1.2400 c3         1 3JH       0.062700
     14 CAJ          6.2390    -4.8080    -1.2350 c3         1 3JH      -0.071000
     15 CAL          6.7600    -6.1540    -1.7440 c3         1 3JH      -0.089767
     16 CAM          6.7460    -3.6880    -2.1470 c3         1 3JH      -0.089767
     17 CAK          6.7430    -4.5730     0.1900 c3         1 3JH      -0.089767
     18 CAQ          4.2110    -5.9860    -0.4270 c          1 3JH       0.693100
     19 OAR          4.0160    -5.8560     0.7620 o          1 3JH      -0.604100
     20 NAS          3.9840    -7.1730    -1.0230 n          1 3JH      -0.468800
     21 CAW          4.0900    -7.4440    -2.4680 c3         1 3JH       0.081000
     22 CAV          3.1740    -8.6700    -2.7100 c3         1 3JH       0.129100
     23 OAZ          1.8060    -8.2740    -2.8140 oh         1 3JH      -0.587800
     24 CAU          3.4170    -9.4990    -1.4210 c3         1 3JH      -0.107400
     25 CAT          3.5940    -8.4140    -0.3380 c3         1 3JH       0.048700
     26 CAX          4.6680    -8.8300     0.6340 c          1 3JH       0.647100
     27 OAY          5.6670    -8.1540     0.7600 o          1 3JH      -0.590100
     28 NBA          4.5180    -9.9540     1.3630 ns         1 3JH      -0.586900
     29 CBB          5.5620   -10.3590     2.3070 c3         1 3JH       0.160300
     30 CBC          5.1540   -11.6390     2.9900 ca         1 3JH      -0.115300
     31 CBH          5.5050   -12.8560     2.4360 ca         1 3JH      -0.112500
     32 CBG          5.1340   -14.0320     3.0560 ca         1 3JH      -0.117000
     33 CBD          4.4340   -11.5900     4.1710 ca         1 3JH      -0.112500
     34 CBE          4.0580   -12.7580     4.8010 ca         1 3JH      -0.117000
     35 CBF          4.4040   -13.9900     4.2440 ca         1 3JH       0.004000
     36 CBI          4.0030   -15.2470     4.9140 cc         1 3JH      -0.105400
     37 SBM          5.0420   -16.6350     5.2250 ss         1 3JH      -0.198300
     38 CBL          3.7400   -17.4570     5.9660 cd         1 3JH       0.440300
     39 NBK          2.6780   -16.7230     5.9500 nc         1 3JH      -0.675000
     40 CBJ          2.7760   -15.5320     5.4020 cc         1 3JH       0.382600
     41 CBN          1.6180   -14.5710     5.3170 c3         1 3JH      -0.116400
     42 H1          -0.3610    -0.8810     0.5160 hc         1 3JH       0.034200
     43 H2          -0.3610     0.8880     0.5050 hc         1 3JH       0.034200
     44 H3          -0.3610    -0.0070    -1.0210 hc         1 3JH       0.034200
     45 H4           1.8910     0.8850    -0.5110 hc         1 3JH       0.051700
     46 H5           1.8570    -0.9690     1.8900 hc         1 3JH       0.034200
     47 H6           3.1030     0.2060     1.4500 hc         1 3JH       0.034200
     48 H7           1.5200     0.7630     2.0090 hc         1 3JH       0.034200
     49 H8           1.7540    -2.1320    -0.1610 hc         1 3JH       0.072200
     50 H9           1.6090    -1.2960    -1.7130 hc         1 3JH       0.072200
     51 H10          3.9930    -1.0530     0.1560 h1         1 3JH       0.066700
     52 H11          4.5510     0.6530    -1.3310 hn         1 3JH       0.313500
     53 H12          3.5240     2.0610    -3.4360 hc         1 3JH       0.058367
     54 H13          3.5250     0.9890    -4.8430 hc         1 3JH       0.058367
     55 H14          5.0030     1.2070    -3.8960 hc         1 3JH       0.058367
     56 H15          3.9320    -3.5420     0.3030 hn         1 3JH       0.331500
     57 H16          4.3530    -4.9100    -2.2590 h1         1 3JH       0.085700
     58 H17          6.4110    -6.3170    -2.7560 hc         1 3JH       0.042367
     59 H18          6.3950    -6.9480    -1.1030 hc         1 3JH       0.042367
     60 H19          7.8430    -6.1500    -1.7310 hc         1 3JH       0.042367
     61 H20          7.8010    -3.8330    -2.3440 hc         1 3JH       0.042367
     62 H21          6.5970    -2.7320    -1.6600 hc         1 3JH       0.042367
     63 H22          6.1980    -3.7080    -3.0810 hc         1 3JH       0.042367
     64 H23          7.8230    -4.6590     0.2100 hc         1 3JH       0.042367
     65 H24          6.4530    -3.5810     0.5160 hc         1 3JH       0.042367
     66 H25          6.3100    -5.3120     0.8530 hc         1 3JH       0.042367
     67 H26          3.7350    -6.5930    -3.0360 h1         1 3JH       0.067700
     68 H27          5.1130    -7.6810    -2.7320 h1         1 3JH       0.067700
     69 H28          3.4930    -9.2200    -3.5860 h1         1 3JH       0.049700
     70 H29          1.4270    -8.6530    -3.5900 ho         1 3JH       0.406000
     71 H30          4.3170   -10.0940    -1.5150 hc         1 3JH       0.066200
     72 H31          2.5580   -10.1210    -1.2010 hc         1 3JH       0.066200
     73 H32          2.6570    -8.2640     0.1850 h1         1 3JH       0.086700
     74 H33          3.6780   -10.4920     1.2850 hn         1 3JH       0.315500
     75 H34          5.6990    -9.5820     3.0490 h1         1 3JH       0.061200
     76 H35          6.4910   -10.5160     1.7730 h1         1 3JH       0.061200
     77 H36          6.0720   -12.8870     1.5140 ha         1 3JH       0.139000
     78 H37          5.4080   -14.9860     2.6200 ha         1 3JH       0.140500
     79 H38          4.1650   -10.6330     4.6010 ha         1 3JH       0.139000
     80 H39          3.4920   -12.7190     5.7240 ha         1 3JH       0.140500
     81 H40          3.7970   -18.4530     6.3870 h5         1 3JH       0.062100
     82 H41          1.5930   -14.1220     4.3320 hc         1 3JH       0.052367
     83 H42          0.6920   -15.1050     5.4940 hc         1 3JH       0.052367
     84 H43          1.7360   -13.7960     6.0640 hc         1 3JH       0.052367
@<TRIPOS>BOND
     1    39    38 2
     2    39    40 1
     3    38    37 1
     4    41    40 1
     5    40    36 2
     6    37    36 1
     7    36    35 1
     8    35    34 ar
     9    35    32 ar
    10    34    33 ar
    11    32    31 ar
    12    33    30 ar
    13    31    30 ar
    14    30    29 1
    15    29    28 1
    16    28    26 1
    17    26    27 2
    18    26    25 1
    19    24    25 1
    20    24    22 1
    21    25    20 1
    22    22    23 1
    23    22    21 1
    24    20    21 1
    25    20    18 1
    26    19    18 2
    27    18    13 1
    28    16    14 1
    29    13    14 1
    30    13    12 1
    31    14    17 1
    32    14    15 1
    33    12    10 1
    34    11    10 2
    35    10     5 1
    36     4     5 1
    37     4     2 1
    38     5     6 1
    39     3     2 1
    40     2     1 1
    41     6     7 1
    42     9     7 1
    43     7     8 2
    44     1    42 1
    45     1    43 1
    46     1    44 1
    47     2    45 1
    48     3    46 1
    49     3    47 1
    50     3    48 1
    51     4    49 1
    52     4    50 1
    53     5    51 1
    54     6    52 1
    55     9    53 1
    56     9    54 1
    57     9    55 1
    58    12    56 1
    59    13    57 1
    60    15    58 1
    61    15    59 1
    62    15    60 1
    63    16    61 1
    64    16    62 1
    65    16    63 1
    66    17    64 1
    67    17    65 1
    68    17    66 1
    69    21    67 1
    70    21    68 1
    71    22    69 1
    72    23    70 1
    73    24    71 1
    74    24    72 1
    75    25    73 1
    76    28    74 1
    77    29    75 1
    78    29    76 1
    79    31    77 1
    80    32    78 1
    81    33    79 1
    82    34    80 1
    83    38    81 1
    84    41    82 1
    85    41    83 1
    86    41    84 1
@<TRIPOS>SUBSTRUCTURE
     1 3JH         1 TEMP              0 ****  ****    0 ROOT
