@<TRIPOS>MOLECULE
3JJ
   84    86     1     0     0
SMALL
bcc


@<TRIPOS>ATOM
      1 CAD          0.0000     0.0000     0.0000 c3         1 3JJ      -0.063100
      2 CAA          1.5070     0.0000     0.0000 c          1 3JJ       0.571100
      3 OAC          2.1130     0.0000     1.0510 o          1 3JJ      -0.661100
      4 N            2.1810     0.0000    -1.1670 ns         1 3JJ      -0.176900
      5 CA           3.6460     0.0010    -1.1670 c3         1 3JJ      -0.045300
      6 CB           4.1570    -1.4350    -1.0410 c3         1 3JJ      -0.077000
      7 CG1          3.5340    -2.0920     0.1920 c3         1 3JJ      -0.009767
      8 CBO          3.7660    -2.2270    -2.2910 c3         1 3JJ      -0.009767
      9 CG2          5.6800    -1.4250    -0.9000 c3         1 3JJ      -0.009767
     10 C            4.1490     0.6020    -2.4540 c          1 3JJ       0.573100
     11 O            3.3760     0.8250    -3.3620 o          1 3JJ      -0.670100
     12 NAH          5.4560     0.8910    -2.5970 ns         1 3JJ      -0.172900
     13 CAI          5.9580     1.4090    -3.8740 c3         1 3JJ      -0.050300
     14 CAJ          5.7660     2.9260    -3.9200 c3         1 3JJ      -0.067000
     15 CAL          4.2780     3.2570    -3.7980 c3         1 3JJ      -0.018100
     16 CAM          6.5280     3.5710    -2.7600 c3         1 3JJ      -0.018100
     17 CAK          6.3030     3.4680    -5.2470 c3         1 3JJ      -0.018100
     18 CAO          7.4220     1.0820    -4.0080 c          1 3JJ       0.610100
     19 OAP          8.1370     1.0860    -3.0280 o          1 3JJ      -0.634100
     20 NAQ          7.9390     0.7850    -5.2170 n          1 3JJ      -0.117800
     21 CAU          7.2130     0.8430    -6.4990 c3         1 3JJ       0.009000
     22 CAT          7.9730    -0.1330    -7.4300 c3         1 3JJ       0.182100
     23 OAX          7.5790    -1.4850    -7.1880 oh         1 3JJ      -0.573800
     24 CAS          9.4440     0.1020    -6.9940 c3         1 3JJ      -0.054400
     25 CAR          9.3200     0.3550    -5.4770 c3         1 3JJ      -0.031300
     26 CAV         10.2870     1.4330    -5.0560 c          1 3JJ       0.560100
     27 OAW          9.8720     2.4640    -4.5730 o          1 3JJ      -0.624100
     28 NAY         11.6120     1.2500    -5.2180 ns         1 3JJ      -0.198900
     29 CAZ         12.5520     2.2970    -4.8090 c3         1 3JJ       0.112300
     30 CBA         13.9610     1.8460    -5.0960 ca         1 3JJ      -0.124300
     31 CBF         14.5390     2.1270    -6.3210 ca         1 3JJ      -0.082500
     32 CBE         15.8300     1.7190    -6.5890 ca         1 3JJ      -0.092500
     33 CBB         14.6740     1.1590    -4.1290 ca         1 3JJ      -0.082500
     34 CBC         15.9650     0.7440    -4.3840 ca         1 3JJ      -0.092500
     35 CBD         16.5510     1.0200    -5.6200 ca         1 3JJ       0.014000
     36 CBG         17.9350     0.5790    -5.9010 cc         1 3JJ      -0.056400
     37 SBK         19.2190     1.5650    -6.5950 ss         1 3JJ      -0.301300
     38 CBJ         20.2970     0.2420    -6.5070 cc         1 3JJ       0.463300
     39 NBI         19.7020    -0.7900    -6.0080 nd         1 3JJ      -0.551000
     40 CBH         18.4410    -0.6510    -5.6650 cd         1 3JJ       0.330600
     41 CBL         17.6270    -1.7700    -5.0710 c3         1 3JJ      -0.020400
     42 H1          -0.3610     0.4170    -0.9320 hc         1 3JJ       0.022367
     43 H2          -0.3610    -1.0160     0.1050 hc         1 3JJ       0.022367
     44 H3          -0.3610     0.5990     0.8270 hc         1 3JJ       0.022367
     45 H4           1.6800     0.0080    -2.0340 hn         1 3JJ       0.200500
     46 H5           4.0070     0.5880    -0.3310 h1         1 3JJ       0.070700
     47 H6           2.4770    -2.2540     0.0200 hc         1 3JJ       0.014256
     48 H7           3.6650    -1.4450     1.0510 hc         1 3JJ       0.014256
     49 H8           4.0200    -3.0430     0.3790 hc         1 3JJ       0.014256
     50 H9           4.3070    -1.8400    -3.1470 hc         1 3JJ       0.014256
     51 H10          2.7010    -2.1300    -2.4630 hc         1 3JJ       0.014256
     52 H11          4.0150    -3.2720    -2.1500 hc         1 3JJ       0.014256
     53 H12          5.9970    -2.2990    -0.3440 hc         1 3JJ       0.014256
     54 H13          6.1340    -1.4380    -1.8840 hc         1 3JJ       0.014256
     55 H14          5.9880    -0.5300    -0.3720 hc         1 3JJ       0.014256
     56 H15          6.0850     0.7580    -1.8300 hn         1 3JJ       0.213500
     57 H16          5.4100     0.9510    -4.6880 h1         1 3JJ       0.063700
     58 H17          3.7080     2.6020    -4.4460 hc         1 3JJ       0.017033
     59 H18          3.9590     3.1160    -2.7720 hc         1 3JJ       0.017033
     60 H19          4.1120     4.2870    -4.0900 hc         1 3JJ       0.017033
     61 H20          6.1560     4.5750    -2.5980 hc         1 3JJ       0.017033
     62 H21          7.5840     3.6120    -3.0000 hc         1 3JJ       0.017033
     63 H22          6.3840     2.9830    -1.8620 hc         1 3JJ       0.017033
     64 H23          5.8300     2.9440    -6.0680 hc         1 3JJ       0.017033
     65 H24          6.0840     4.5260    -5.3190 hc         1 3JJ       0.017033
     66 H25          7.3750     3.3170    -5.2910 hc         1 3JJ       0.017033
     67 H26          7.2430     1.8480    -6.9030 h1         1 3JJ       0.042200
     68 H27          6.1890     0.5140    -6.3670 h1         1 3JJ       0.042200
     69 H28          7.8330     0.1380    -8.4700 h1         1 3JJ       0.014700
     70 H29          7.4030    -1.9130    -8.0090 ho         1 3JJ       0.395000
     71 H30          9.8540     0.9720    -7.4930 hc         1 3JJ       0.034200
     72 H31         10.0450    -0.7780    -7.1870 hc         1 3JJ       0.034200
     73 H32          9.5250    -0.5610    -4.9360 h1         1 3JJ       0.052700
     74 H33         11.9560     0.3930    -5.6060 hn         1 3JJ       0.176500
     75 H34         12.4420     2.4870    -3.7490 h1         1 3JJ       0.032200
     76 H35         12.3440     3.2050    -5.3620 h1         1 3JJ       0.032200
     77 H36         13.9780     2.6710    -7.0710 ha         1 3JJ       0.111000
     78 H37         16.2800     1.9380    -7.5490 ha         1 3JJ       0.117000
     79 H38         14.2170     0.9460    -3.1700 ha         1 3JJ       0.111000
     80 H39         16.5210     0.2040    -3.6280 ha         1 3JJ       0.117000
     81 H40         21.3310     0.2640    -6.8280 h5         1 3JJ       0.026100
     82 H41         16.6490    -1.7920    -5.5370 hc         1 3JJ       0.016033
     83 H42         18.1300    -2.7140    -5.2430 hc         1 3JJ       0.016033
     84 H43         17.5150    -1.6100    -4.0050 hc         1 3JJ       0.016033
@<TRIPOS>BOND
     1     1     2 1   
     2     1    42 1   
     3     1    43 1   
     4     1    44 1   
     5     2     3 2   
     6     2     4 1   
     7     4     5 1   
     8     4    45 1   
     9     5     6 1   
    10     5    10 1   
    11     5    46 1   
    12     6     7 1   
    13     6     8 1   
    14     6     9 1   
    15     7    47 1   
    16     7    48 1   
    17     7    49 1   
    18     8    50 1   
    19     8    51 1   
    20     8    52 1   
    21     9    53 1   
    22     9    54 1   
    23     9    55 1   
    24    10    11 2   
    25    10    12 1   
    26    12    13 1   
    27    12    56 1   
    28    13    14 1   
    29    13    18 1   
    30    13    57 1   
    31    14    15 1   
    32    14    16 1   
    33    14    17 1   
    34    15    58 1   
    35    15    59 1   
    36    15    60 1   
    37    16    61 1   
    38    16    62 1   
    39    16    63 1   
    40    17    64 1   
    41    17    65 1   
    42    17    66 1   
    43    18    19 2   
    44    18    20 1   
    45    20    21 1   
    46    20    25 1   
    47    21    22 1   
    48    21    67 1   
    49    21    68 1   
    50    22    23 1   
    51    22    24 1   
    52    22    69 1   
    53    23    70 1   
    54    24    25 1   
    55    24    71 1   
    56    24    72 1   
    57    25    26 1   
    58    25    73 1   
    59    26    27 2   
    60    26    28 1   
    61    28    29 1   
    62    28    74 1   
    63    29    30 1   
    64    29    75 1   
    65    29    76 1   
    66    30    31 ar  
    67    30    33 ar  
    68    31    32 ar  
    69    31    77 1   
    70    32    35 ar  
    71    32    78 1   
    72    33    34 ar  
    73    33    79 1   
    74    34    35 ar  
    75    34    80 1   
    76    35    36 1   
    77    36    37 1   
    78    36    40 2   
    79    37    38 1   
    80    38    39 2   
    81    38    81 1   
    82    39    40 1   
    83    40    41 1   
    84    41    82 1   
    85    41    83 1   
    86    41    84 1   
@<TRIPOS>SUBSTRUCTURE
     1 3JJ         1 TEMP              0 ****  ****    0 ROOT
