@<TRIPOS>MOLECULE
molecule
   84    86     1     0     0
SMALL
bcc


@<TRIPOS>ATOM
      1 CAD          0.0000     0.0000     0.0000 c3         1 3JJ      -0.166100
      2 CAA          1.5070     0.0000     0.0000 c          1 3JJ       0.659100
      3 OAC          2.1130     0.0000     1.0510 o          1 3JJ      -0.620100
      4 N            2.1810     0.0000    -1.1670 ns         1 3JJ      -0.569900
      5 CA           3.6460     0.0010    -1.1670 c3         1 3JJ       0.055700
      6 CB           4.1570    -1.4350    -1.0410 c3         1 3JJ      -0.080000
      7 CG1          3.5340    -2.0920     0.1920 c3         1 3JJ      -0.086767
      8 CBO          3.7660    -2.2270    -2.2910 c3         1 3JJ      -0.086767
      9 CG2          5.6800    -1.4250    -0.9000 c3         1 3JJ      -0.086767
     10 C            4.1490     0.6020    -2.4540 c          1 3JJ       0.659100
     11 O            3.3760     0.8250    -3.3620 o          1 3JJ      -0.629100
     12 NAH          5.4560     0.8910    -2.5970 ns         1 3JJ      -0.564900
     13 CAI          5.9580     1.4090    -3.8740 c3         1 3JJ       0.059700
     14 CAJ          5.7660     2.9260    -3.9200 c3         1 3JJ      -0.073000
     15 CAL          4.2780     3.2570    -3.7980 c3         1 3JJ      -0.089433
     16 CAM          6.5280     3.5710    -2.7600 c3         1 3JJ      -0.089433
     17 CAK          6.3030     3.4680    -5.2470 c3         1 3JJ      -0.089433
     18 CAO          7.4220     1.0820    -4.0080 c          1 3JJ       0.687100
     19 OAP          8.1370     1.0860    -3.0280 o          1 3JJ      -0.593100
     20 NAQ          7.9390     0.7850    -5.2170 n          1 3JJ      -0.469800
     21 CAU          7.2130     0.8430    -6.4990 c3         1 3JJ       0.084000
     22 CAT          7.9730    -0.1330    -7.4300 c3         1 3JJ       0.128100
     23 OAX          7.5790    -1.4850    -7.1880 oh         1 3JJ      -0.590800
     24 CAS          9.4440     0.1020    -6.9940 c3         1 3JJ      -0.108400
     25 CAR          9.3200     0.3550    -5.4770 c3         1 3JJ       0.049700
     26 CAV         10.2870     1.4330    -5.0560 c          1 3JJ       0.646100
     27 OAW          9.8720     2.4640    -4.5730 o          1 3JJ      -0.583100
     28 NAY         11.6120     1.2500    -5.2180 ns         1 3JJ      -0.588900
     29 CAZ         12.5520     2.2970    -4.8090 c3         1 3JJ       0.161300
     30 CBA         13.9610     1.8460    -5.0960 ca         1 3JJ      -0.115300
     31 CBF         14.5390     2.1270    -6.3210 ca         1 3JJ      -0.112000
     32 CBE         15.8300     1.7190    -6.5890 ca         1 3JJ      -0.116500
     33 CBB         14.6740     1.1590    -4.1290 ca         1 3JJ      -0.112000
     34 CBC         15.9650     0.7440    -4.3840 ca         1 3JJ      -0.116500
     35 CBD         16.5510     1.0200    -5.6200 ca         1 3JJ       0.004000
     36 CBG         17.9350     0.5790    -5.9010 cc         1 3JJ      -0.106400
     37 SBK         19.2190     1.5650    -6.5950 ss         1 3JJ      -0.197300
     38 CBJ         20.2970     0.2420    -6.5070 cd         1 3JJ       0.439300
     39 NBI         19.7020    -0.7900    -6.0080 nc         1 3JJ      -0.675000
     40 CBH         18.4410    -0.6510    -5.6650 cc         1 3JJ       0.382600
     41 CBL         17.6270    -1.7700    -5.0710 c3         1 3JJ      -0.117400
     42 H1          -0.3610     0.4170    -0.9320 hc         1 3JJ       0.060367
     43 H2          -0.3610    -1.0160     0.1050 hc         1 3JJ       0.060367
     44 H3          -0.3610     0.5990     0.8270 hc         1 3JJ       0.060367
     45 H4           1.6800     0.0080    -2.0340 hn         1 3JJ       0.335500
     46 H5           4.0070     0.5880    -0.3310 h1         1 3JJ       0.093700
     47 H6           2.4770    -2.2540     0.0200 hc         1 3JJ       0.041478
     48 H7           3.6650    -1.4450     1.0510 hc         1 3JJ       0.041478
     49 H8           4.0200    -3.0430     0.3790 hc         1 3JJ       0.041478
     50 H9           4.3070    -1.8400    -3.1470 hc         1 3JJ       0.041478
     51 H10          2.7010    -2.1300    -2.4630 hc         1 3JJ       0.041478
     52 H11          4.0150    -3.2720    -2.1500 hc         1 3JJ       0.041478
     53 H12          5.9970    -2.2990    -0.3440 hc         1 3JJ       0.041478
     54 H13          6.1340    -1.4380    -1.8840 hc         1 3JJ       0.041478
     55 H14          5.9880    -0.5300    -0.3720 hc         1 3JJ       0.041478
     56 H15          6.0850     0.7580    -1.8300 hn         1 3JJ       0.342500
     57 H16          5.4100     0.9510    -4.6880 h1         1 3JJ       0.082700
     58 H17          3.7080     2.6020    -4.4460 hc         1 3JJ       0.042811
     59 H18          3.9590     3.1160    -2.7720 hc         1 3JJ       0.042811
     60 H19          4.1120     4.2870    -4.0900 hc         1 3JJ       0.042811
     61 H20          6.1560     4.5750    -2.5980 hc         1 3JJ       0.042811
     62 H21          7.5840     3.6120    -3.0000 hc         1 3JJ       0.042811
     63 H22          6.3840     2.9830    -1.8620 hc         1 3JJ       0.042811
     64 H23          5.8300     2.9440    -6.0680 hc         1 3JJ       0.042811
     65 H24          6.0840     4.5260    -5.3190 hc         1 3JJ       0.042811
     66 H25          7.3750     3.3170    -5.2910 hc         1 3JJ       0.042811
     67 H26          7.2430     1.8480    -6.9030 h1         1 3JJ       0.065700
     68 H27          6.1890     0.5140    -6.3670 h1         1 3JJ       0.065700
     69 H28          7.8330     0.1380    -8.4700 h1         1 3JJ       0.050700
     70 H29          7.4030    -1.9130    -8.0090 ho         1 3JJ       0.406000
     71 H30          9.8540     0.9720    -7.4930 hc         1 3JJ       0.066700
     72 H31         10.0450    -0.7780    -7.1870 hc         1 3JJ       0.066700
     73 H32          9.5250    -0.5610    -4.9360 h1         1 3JJ       0.084700
     74 H33         11.9560     0.3930    -5.6060 hn         1 3JJ       0.314500
     75 H34         12.4420     2.4870    -3.7490 h1         1 3JJ       0.061200
     76 H35         12.3440     3.2050    -5.3620 h1         1 3JJ       0.061200
     77 H36         13.9780     2.6710    -7.0710 ha         1 3JJ       0.138500
     78 H37         16.2800     1.9380    -7.5490 ha         1 3JJ       0.140500
     79 H38         14.2170     0.9460    -3.1700 ha         1 3JJ       0.138500
     80 H39         16.5210     0.2040    -3.6280 ha         1 3JJ       0.140500
     81 H40         21.3310     0.2640    -6.8280 h5         1 3JJ       0.062100
     82 H41         16.6490    -1.7920    -5.5370 hc         1 3JJ       0.052367
     83 H42         18.1300    -2.7140    -5.2430 hc         1 3JJ       0.052367
     84 H43         17.5150    -1.6100    -4.0050 hc         1 3JJ       0.052367
@<TRIPOS>BOND
     1    39    38 2   
     2    39    40 1   
     3    38    37 1   
     4    41    40 1   
     5    40    36 2   
     6    37    36 1   
     7    36    35 1   
     8    35    34 ar  
     9    35    32 ar  
    10    34    33 ar  
    11    32    31 ar  
    12    33    30 ar  
    13    31    30 ar  
    14    30    29 1   
    15    29    28 1   
    16    28    26 1   
    17    24    25 1   
    18    24    22 1   
    19    26    27 2   
    20    26    25 1   
    21    25    20 1   
    22    22    23 1   
    23    22    21 1   
    24    20    21 1   
    25    20    18 1   
    26    19    18 2   
    27    18    13 1   
    28    15    14 1   
    29    13    14 1   
    30    13    12 1   
    31    14    16 1   
    32    14    17 1   
    33    12    10 1   
    34     9     6 1   
    35    11    10 2   
    36    10     5 1   
    37     7     6 1   
    38     6     5 1   
    39     6     8 1   
    40     5     4 1   
    41     4     2 1   
    42     1     2 1   
    43     2     3 2   
    44     1    42 1   
    45     1    43 1   
    46     1    44 1   
    47     4    45 1   
    48     5    46 1   
    49     7    47 1   
    50     7    48 1   
    51     7    49 1   
    52     8    50 1   
    53     8    51 1   
    54     8    52 1   
    55     9    53 1   
    56     9    54 1   
    57     9    55 1   
    58    12    56 1   
    59    13    57 1   
    60    15    58 1   
    61    15    59 1   
    62    15    60 1   
    63    16    61 1   
    64    16    62 1   
    65    16    63 1   
    66    17    64 1   
    67    17    65 1   
    68    17    66 1   
    69    21    67 1   
    70    21    68 1   
    71    22    69 1   
    72    23    70 1   
    73    24    71 1   
    74    24    72 1   
    75    25    73 1   
    76    28    74 1   
    77    29    75 1   
    78    29    76 1   
    79    31    77 1   
    80    32    78 1   
    81    33    79 1   
    82    34    80 1   
    83    38    81 1   
    84    41    82 1   
    85    41    83 1   
    86    41    84 1   
@<TRIPOS>SUBSTRUCTURE
     1 3JJ         1 TEMP              0 ****  ****    0 ROOT
