@<TRIPOS>MOLECULE
3JK
   59    61     1     0     0
SMALL
bcc


@<TRIPOS>ATOM
      1 CAB        -0.0410    0.8270    0.9670 c3        1 3JK     -0.096433
      2 CBC         1.4460    1.0650    1.1650 c3        1 3JK     -0.041000
      3 CAC         1.7110    1.5730    2.5730 c3        1 3JK     -0.096433
      4 CAD         2.1890   -0.2540    0.9690 c3        1 3JK     -0.096433
      5 CAN         1.9850    2.0460    0.1200 c3        1 3JK     -0.137400
      6 CAT         1.2960    3.3870    0.0680 c         1 3JK      0.683100
      7 OAE         0.5500    3.8400    0.9640 o         1 3JK     -0.650100
      8 N           1.4460    4.1720   -1.0870 n         1 3JK     -0.478800
      9 CD2         2.4430    3.8680   -2.1030 c3        1 3JK      0.037000
     10 CG          2.9470    5.2080   -2.7010 c3        1 3JK      0.136100
     11 OD1         4.2860    5.4390   -2.3130 oh        1 3JK     -0.584800
     12 CB          2.0920    6.3070   -2.0540 c3        1 3JK     -0.096400
     13 CA          1.1660    5.5980   -1.0440 c3        1 3JK      0.039700
     14 C          -0.3060    5.9060   -1.3760 c         1 3JK      0.534100
     15 O          -0.7260    6.6020   -2.2850 o         1 3JK     -0.418100
     16 NAR        -1.3100    5.2910   -0.4390 n4        1 3JK     -0.677800
     17 CAM        -2.6320    5.9980   -0.3750 c3        1 3JK      0.175100
     18 CAV        -2.5930    7.1600    0.5540 ca        1 3JK     -0.193300
     19 CAI        -2.5420    8.4650    0.0470 ca        1 3JK     -0.094000
     20 CAK        -2.5530    9.5510    0.9140 ca        1 3JK     -0.118000
     21 CAH        -2.6510    6.9540    1.9370 ca        1 3JK     -0.094000
     22 CAJ        -2.6570    8.0390    2.8080 ca        1 3JK     -0.118000
     23 CAX        -2.6120    9.3510    2.3070 ca        1 3JK     -0.045500
     24 CAY        -2.6270   10.4770    3.1970 cc        1 3JK      0.147900
     25 OAS        -2.3770   11.7410    2.6210 os        1 3JK     -0.385800
     26 CAL        -2.4560   12.6470    3.6790 cc        1 3JK      0.523300
     27 NAQ        -2.7320   12.0620    4.8380 nd        1 3JK     -0.664000
     28 CAW        -2.8490   10.6830    4.5660 cd        1 3JK      0.320300
     29 CAA        -3.1620    9.6890    5.6060 c3        1 3JK     -0.138400
     30 H1         -0.3990    0.0500    1.6850 hc        1 3JK      0.045478
     31 H2         -0.6150    1.7670    1.1510 hc        1 3JK      0.045478
     32 H3         -0.2470    0.4710   -0.0710 hc        1 3JK      0.045478
     33 H4          1.3520    0.8230    3.3190 hc        1 3JK      0.045478
     34 H5          1.1750    2.5360    2.7520 hc        1 3JK      0.045478
     35 H6          2.8050    1.7330    2.7310 hc        1 3JK      0.045478
     36 H7          1.9880   -0.6740   -0.0450 hc        1 3JK      0.045478
     37 H8          1.8500   -0.9950    1.7330 hc        1 3JK      0.045478
     38 H9          3.2890   -0.1050    1.0860 hc        1 3JK      0.045478
     39 H10         1.9200    1.5550   -0.8900 hc        1 3JK      0.084200
     40 H11         3.0710    2.2450    0.3420 hc        1 3JK      0.084200
     41 H12         3.3120    3.3030   -1.6660 h1        1 3JK      0.076700
     42 H13         1.9580    3.2380   -2.8980 h1        1 3JK      0.076700
     43 H14         2.8420    5.2060   -3.8170 h1        1 3JK      0.074700
     44 H15         4.8580    5.0140   -2.9650 ho        1 3JK      0.424000
     45 H16         1.5140    6.8630   -2.8330 hc        1 3JK      0.102700
     46 H17         2.7510    7.0350   -1.5130 hc        1 3JK      0.102700
     47 H18         1.3390    6.0060    0.0010 h1        1 3JK      0.112700
     48 H19        -0.8900    5.2630    0.5110 hn        1 3JK      0.474800
     49 H20        -3.3900    5.2400   -0.0180 hx        1 3JK      0.111200
     50 H21        -2.9070    6.3240   -1.4210 hx        1 3JK      0.111200
     51 H22        -2.5020    8.6340   -1.0410 ha        1 3JK      0.143500
     52 H23        -2.5210   10.5780    0.5150 ha        1 3JK      0.164500
     53 H24        -2.7050    5.9330    2.3450 ha        1 3JK      0.143500
     54 H25        -2.7000    7.8650    3.8950 ha        1 3JK      0.164500
     55 H26        -2.2860   13.6980    3.4290 h5        1 3JK      0.101100
     56 H27        -4.0100    9.0400    5.2720 hc        1 3JK      0.064700
     57 H28        -3.4530   10.1810    6.5690 hc        1 3JK      0.064700
     58 H29        -2.2660    9.0460    5.8000 hc        1 3JK      0.064700
     59 HAR2       -1.4520    4.3180   -0.7350 hn        1 3JK      0.474800
@<TRIPOS>BOND
     1    1    2 1
     2    1   30 1
     3    1   31 1
     4    1   32 1
     5    2    3 1
     6    2    4 1
     7    2    5 1
     8    3   33 1
     9    3   34 1
    10    3   35 1
    11    4   36 1
    12    4   37 1
    13    4   38 1
    14    5    6 1
    15    5   39 1
    16    5   40 1
    17    6    7 2
    18    6    8 1
    19    8    9 1
    20    8   13 1
    21    9   10 1
    22    9   41 1
    23    9   42 1
    24   10   11 1
    25   10   12 1
    26   10   43 1
    27   11   44 1
    28   12   13 1
    29   12   45 1
    30   12   46 1
    31   13   14 1
    32   13   47 1
    33   14   15 2
    34   14   16 1
    35   16   17 1
    36   16   48 1
    37   16   59 1
    38   17   18 1
    39   17   49 1
    40   17   50 1
    41   18   19 ar
    42   18   21 ar
    43   19   20 ar
    44   19   51 1
    45   20   23 ar
    46   20   52 1
    47   21   22 ar
    48   21   53 1
    49   22   23 ar
    50   22   54 1
    51   23   24 1
    52   24   25 1
    53   24   28 2
    54   25   26 1
    55   26   27 2
    56   26   55 1
    57   27   28 1
    58   28   29 1
    59   29   56 1
    60   29   57 1
    61   29   58 1
@<TRIPOS>SUBSTRUCTURE
     1 3JK         1 TEMP              0 ****  ****    0 ROOT
