@<TRIPOS>MOLECULE
molecule
   27    27     1     0     0
SMALL
bcc


@<TRIPOS>ATOM
      1 C8           0.0000     0.0000     0.0000 c          1 3JL       0.928200
      2 C4           2.1780     0.0000     1.2040 ca         1 3JL      -0.086300
      3 C5           1.4780     0.0000     0.0000 ca         1 3JL      -0.039600
      4 C2           4.2570    -0.0060     0.0050 ca         1 3JL      -0.212000
      5 C6           2.1870     0.0000    -1.2160 ca         1 3JL      -0.100600
      6 O12          0.2680    -3.7660     3.8710 o          1 3JL      -0.882800
      7 O15         -0.7280    -3.0960     5.7270 o          1 3JL      -0.882800
      8 C11         -0.0530    -2.8520     4.5930 c          1 3JL       0.896600
      9 C10          0.3040    -1.4370     4.2180 c3         1 3JL      -0.176400
     10 C9           1.0660    -1.4360     2.8910 c3         1 3JL      -0.065400
     11 C3           3.5610    -0.0060     1.1990 ca         1 3JL      -0.165000
     12 C7           3.5790    -0.0000    -1.2010 ca         1 3JL      -0.127000
     13 O10         -0.6740    -1.1660    -0.0010 o          1 3JL      -0.855300
     14 O9          -0.6070     1.0520     0.0040 o          1 3JL      -0.855300
     15 C12          1.4580    -0.0000    -2.5030 c          1 3JL       0.884200
     16 O14          0.2440     0.0010    -2.5120 o          1 3JL      -0.848300
     17 O13          2.1400    -0.0000    -3.6640 o          1 3JL      -0.848300
     18 H1           5.3400    -0.0090     0.0130 ha         1 3JL       0.061000
     19 H3           0.9270    -1.0050     4.9920 hc         1 3JL       0.014700
     20 H4          -0.6010    -0.8510     4.1150 hc         1 3JL       0.014700
     21 H5           0.4430    -1.8680     2.1170 hc         1 3JL       0.066700
     22 H6           1.9710    -2.0220     2.9940 hc         1 3JL       0.066700
     23 H7           0.5230     0.5860     2.4090 hc         1 3JL       0.024200
     24 H8           2.0510     0.4310     3.2850 hc         1 3JL       0.024200
     25 H9           4.1020    -0.0080     2.1380 ha         1 3JL       0.077000
     26 H10          4.1310    -0.0000    -2.1330 ha         1 3JL       0.117000
     27 C1           1.4280    -0.0000     2.5110 c3         1 3JL      -0.030100
@<TRIPOS>BOND
     1     6     8 1
     2     8     7 1
     3     8     9 1
     4     4    11 ar
     5     4    12 ar
     6    11     2 ar
     7    10     9 1
     8    10    27 1
     9    12     5 ar
    10     2    27 1
    11     2     3 ar
    12    16    15 1
    13     5     3 ar
    14     5    15 1
    15     3     1 1
    16    15    17 1
    17    14     1 1
    18     1    13 1
    19     4    18 1
    20     9    19 1
    21     9    20 1
    22    10    21 1
    23    10    22 1
    24    27    23 1
    25    27    24 1
    26    11    25 1
    27    12    26 1
@<TRIPOS>SUBSTRUCTURE
     1 3JL         1 TEMP              0 ****  ****    0 ROOT
