@<TRIPOS>MOLECULE
3JL
   27    24     1     0     0
SMALL
bcc


@<TRIPOS>ATOM
      1 C8         -8.1610  303.1630 -460.8360 c2        1 3JL      0.333000
      2 C4         -9.4320  301.1490 -459.9940 c2        1 3JL     -0.305000
      3 C5         -9.2500  302.0980 -460.9770 c2        1 3JL      0.170000
      4 C2         27.3570    8.6680    3.0340 c1        1 3JL     -0.218000
      5 C6        -10.0540  302.1570 -462.1690 c2        1 3JL     -0.457000
      6 O12         5.8140 -399.2470  602.9330 o         1 3JL     -0.590000
      7 O15         4.5730 -397.7490  604.0270 o         1 3JL     -0.590000
      8 C11         5.2440 -398.1200  603.0200 c2        1 3JL      0.327000
      9 C10         5.3890 -397.1330  601.8490 c3        1 3JL     -0.226000
     10 C9          4.9780 -397.7610  600.5470 c3        1 3JL     -0.184000
     11 C3         27.3970    8.3050    4.1720 c1        1 3JL     -0.218000
     12 C7        -10.0380  302.9930 -463.1730 c1        1 3JL      0.120000
     13 O10        -8.4610  304.2550 -460.2720 o         1 3JL     -0.569500
     14 O9         -7.0090  302.9060 -461.2890 o         1 3JL     -0.569500
     15 C12       -11.1690  301.0380 -462.3430 c2        1 3JL      0.413000
     16 O14       -10.8300  299.9970 -462.9530 o         1 3JL     -0.529000
     17 O13       -12.3030  301.2990 -461.8800 o         1 3JL     -0.529000
     18 H1        -10.2360  300.4040 -460.1450 ha        1 3JL      0.123000
     19 H3          5.2340 -397.1030  599.6800 hc        1 3JL      0.050667
     20 H4          6.4620 -396.8170  601.7970 hc        1 3JL      0.056000
     21 H5          4.7720 -396.2230  602.0550 hc        1 3JL      0.056000
     22 H6          5.4970 -398.7430  600.4210 hc        1 3JL      0.050667
     23 H7          3.8760 -397.9450  600.5320 hc        1 3JL      0.050667
     24 H8         -7.8850  301.7970 -458.6840 ha        1 3JL      0.024000
     25 H9         27.4320    7.9820    5.1820 ha        1 3JL      0.218000
     26 H10        27.3210    8.9910    2.0240 ha        1 3JL      0.218000
     27 C1         -8.6880  301.0520 -458.8230 c1        1 3JL     -0.225000
@<TRIPOS>BOND
     1    1    3 1   
     2    1   13 1   
     3    1   14 1   
     4    2    3 1   
     5    2   18 1   
     6    2   27 1   
     7    3    5 1   
     8    4   11 1   
     9    4   26 1   
    10    5   12 1   
    11    5   15 1   
    12    6    8 1   
    13    7    8 1   
    14    8    9 1   
    15    9   10 1   
    16    9   20 1   
    17    9   21 1   
    18   10   19 1   
    19   10   22 1   
    20   10   23 1   
    21   11   25 1   
    22   15   16 1   
    23   15   17 1   
    24   24   27 1   
@<TRIPOS>SUBSTRUCTURE
     1 3JL         1 TEMP              0 ****  ****    0 ROOT
