@<TRIPOS>MOLECULE
molecule
   24    24     1     0     0
SMALL
bcc


@<TRIPOS>ATOM
      1 C7           0.0000     0.0000     0.0000 ca         1 3JM      -0.132000
      2 O19          3.3510    -2.6170     6.1160 o          1 3JM      -0.897800
      3 C15          3.0990    -1.4580     5.4900 c          1 3JM       0.903600
      4 O16          3.4910    -0.4180     5.9630 o          1 3JM      -0.897800
      5 C14          2.3280    -1.4530     4.1950 c3         1 3JM      -0.177400
      6 C13          2.1800    -0.0140     3.6950 c3         1 3JM      -0.012100
      7 C4           1.4070    -0.0100     2.4000 ca         1 3JM      -0.083300
      8 C3           0.0150    -0.0040     2.4200 ca         1 3JM      -0.045600
      9 C10         -0.7110    -0.0140     3.7080 c          1 3JM       0.935200
     10 O12         -1.0450    -1.1860     4.2830 o          1 3JM      -0.858300
     11 O11         -1.0050     1.0330     4.2470 o          1 3JM      -0.858300
     12 C5           2.0820     0.0000     1.1930 ca         1 3JM      -0.170000
     13 C6           1.3820     0.0000     0.0000 ca         1 3JM      -0.216000
     14 C2          -0.6970     0.0000     1.2060 ca         1 3JM      -0.104600
     15 C1          -2.1760     0.0060     1.2110 c          1 3JM       0.884200
     16 O8          -2.8530     0.0120     0.0460 o          1 3JM      -0.851800
     17 O9          -2.7790     0.0060     2.2640 o          1 3JM      -0.851800
     18 H1          -0.5410     0.0020    -0.9380 ha         1 3JM       0.114000
     19 H3           1.3460    -1.8810     4.3580 hc         1 3JM       0.050200
     20 H4           2.8590    -2.0390     3.4550 hc         1 3JM       0.050200
     21 H5           1.6480     0.5730     4.4340 hc         1 3JM       0.041700
     22 H6           3.1610     0.4140     3.5310 hc         1 3JM       0.041700
     23 H8           3.1650     0.0000     1.1820 ha         1 3JM       0.078000
     24 H9           1.9210     0.0040    -0.9400 ha         1 3JM       0.058000
@<TRIPOS>BOND
     1     4     3 1
     2     6     7 1
     3     6     5 1
     4    12     7 ar
     5    12    13 ar
     6     3     5 1
     7     3     2 1
     8     7     8 ar
     9    13     1 ar
    10    11     9 1
    11     8    14 ar
    12     8     9 1
    13     1    14 ar
    14    14    15 1
    15     9    10 1
    16    17    15 1
    17    15    16 1
    18     1    18 1
    19     5    19 1
    20     5    20 1
    21     6    21 1
    22     6    22 1
    23    12    23 1
    24    13    24 1
@<TRIPOS>SUBSTRUCTURE
     1 3JM         1 TEMP              0 ****  ****    0 ROOT
