@<TRIPOS>MOLECULE
3JM
   24    24     1     0     0
SMALL
bcc


@<TRIPOS>ATOM
      1 C7          0.0720    0.1130    0.1090 ca        1 3JM     -0.159000
      2 O19         4.3150   -2.3750    5.6690 o         1 3JM     -0.890300
      3 C15         3.8790   -1.3640    5.0250 c         1 3JM      0.899600
      4 O16         4.5060   -0.2610    5.0430 o         1 3JM     -0.890300
      5 C14         2.6160   -1.5470    4.1790 c3        1 3JM     -0.167400
      6 C13         1.7510   -0.3090    4.0250 c3        1 3JM     -0.030100
      7 C4          1.1060   -0.1830    2.6780 ca        1 3JM     -0.059300
      8 C3         -0.2890   -0.0290    2.5050 ca        1 3JM     -0.070600
      9 C10        -1.1670   -0.0150    3.7500 c         1 3JM      0.927200
     10 O12        -1.6720   -1.1010    4.1610 o         1 3JM     -0.858800
     11 O11        -1.3150    1.0760    4.3780 o         1 3JM     -0.858800
     12 C5          1.9580   -0.1670    1.5650 ca        1 3JM     -0.176000
     13 C6          1.4450   -0.0250    0.2810 ca        1 3JM     -0.198000
     14 C2         -0.8050    0.1190    1.2050 ca        1 3JM     -0.077600
     15 C1         -2.2600    0.3020    0.7950 c         1 3JM      0.928200
     16 O8         -2.9270   -0.7130    0.4240 o         1 3JM     -0.869300
     17 O9         -2.7280    1.4760    0.6860 o         1 3JM     -0.869300
     18 H1         -0.3450    0.2230   -0.9020 ha        1 3JM      0.092000
     19 H3          2.0070   -2.3720    4.6290 hc        1 3JM      0.022700
     20 H4          2.9630   -1.9060    3.1750 hc        1 3JM      0.022700
     21 H5          2.3970    0.5990    4.1890 hc        1 3JM      0.058700
     22 H6          0.9600   -0.3050    4.8220 hc        1 3JM      0.058700
     23 H8          3.0430   -0.2620    1.7160 ha        1 3JM      0.102000
     24 H9          2.1180   -0.0190   -0.5870 ha        1 3JM      0.063000
@<TRIPOS>BOND
     1    1   13 ar  
     2    1   14 ar  
     3    1   18 1   
     4    2    3 1   
     5    3    4 1   
     6    3    5 1   
     7    5    6 1   
     8    5   19 1   
     9    5   20 1   
    10    6    7 1   
    11    6   21 1   
    12    6   22 1   
    13    7    8 ar  
    14    7   12 ar  
    15    8    9 1   
    16    8   14 ar  
    17    9   10 1   
    18    9   11 1   
    19   12   13 ar  
    20   12   23 1   
    21   13   24 1   
    22   14   15 1   
    23   15   16 1   
    24   15   17 1   
@<TRIPOS>SUBSTRUCTURE
     1 3JM         1 TEMP              0 ****  ****    0 ROOT
