@<TRIPOS>MOLECULE
3JN
   25    25     1     0     0
SMALL
bcc


@<TRIPOS>ATOM
      1 O15         0.6540   -1.7170    0.4320 o         1 3JN     -0.882800
      2 C11         1.0580   -0.5980   -0.0220 c         1 3JN      0.902600
      3 O12         1.7580    0.1870    0.6850 o         1 3JN     -0.882800
      4 C10         0.6650   -0.2480   -1.4640 c3        1 3JN     -0.143200
      5 C9          1.0830    1.0870   -1.9340 c2        1 3JN     -0.182200
      6 C1          0.8950    1.7020   -3.1130 ce        1 3JN     -0.119200
      7 C4          0.2240    1.2870   -4.3390 ca        1 3JN     -0.047800
      8 C3         -0.3610    0.0190   -4.4480 ca        1 3JN     -0.163000
      9 C2         -0.9980   -0.3750   -5.6210 ca        1 3JN     -0.200000
     10 C7         -1.0530    0.5000   -6.6970 ca        1 3JN     -0.144000
     11 C5          0.1660    2.1810   -5.4450 ca        1 3JN     -0.059600
     12 C8          0.8140    3.5510   -5.2890 c         1 3JN      0.924200
     13 O10         0.1260    4.5040   -4.8170 o         1 3JN     -0.855800
     14 O9          2.0450    3.6790   -5.5620 o         1 3JN     -0.855800
     15 C6         -0.4770    1.7790   -6.6270 ca        1 3JN     -0.085600
     16 C12        -0.6450    2.5780   -7.9130 c         1 3JN      0.928200
     17 O14         0.2090    2.4380   -8.8390 o         1 3JN     -0.865300
     18 O13        -1.7100    3.2460   -8.0860 o         1 3JN     -0.865300
     19 H2          1.1130   -1.0430   -2.1210 hc        1 3JN      0.029700
     20 H3         -0.4520   -0.3480   -1.5320 hc        1 3JN      0.029700
     21 H4          1.6440    1.6440   -1.1550 ha        1 3JN      0.122000
     22 H5          1.3230    2.7250   -3.1980 ha        1 3JN      0.141000
     23 H6         -0.3250   -0.6840   -3.6060 ha        1 3JN      0.109000
     24 H7         -1.4530   -1.3720   -5.6900 ha        1 3JN      0.070000
     25 H8         -1.5550    0.1970   -7.6280 ha        1 3JN      0.096000
@<TRIPOS>BOND
     1    1    2 1   
     2    2    3 1   
     3    2    4 1   
     4    4    5 1   
     5    4   19 1   
     6    4   20 1   
     7    5    6 2   
     8    5   21 1   
     9    6    7 1   
    10    6   22 1   
    11    7    8 ar  
    12    7   11 ar  
    13    8    9 ar  
    14    8   23 1   
    15    9   10 ar  
    16    9   24 1   
    17   10   15 ar  
    18   10   25 1   
    19   11   12 1   
    20   11   15 ar  
    21   12   13 1   
    22   12   14 1   
    23   15   16 1   
    24   16   17 1   
    25   16   18 1   
@<TRIPOS>SUBSTRUCTURE
     1 3JN         1 TEMP              0 ****  ****    0 ROOT
