@<TRIPOS>MOLECULE
molecule
   25    25     1     0     0
SMALL
bcc


@<TRIPOS>ATOM
      1 O15          0.0000     0.0000     0.0000 o          1 3JN      -0.878300
      2 C11          1.2080     0.0000     0.0000 c          1 3JN       0.897600
      3 O12          1.8790     0.0000     1.1630 o          1 3JN      -0.878300
      4 C10          1.9630    -0.0080    -1.3050 c3         1 3JN      -0.143200
      5 C9           0.9840    -0.0120    -2.4510 c2         1 3JN      -0.181200
      6 C1           1.0550     0.9240    -3.3880 ce         1 3JN      -0.100200
      7 C4           0.0970     0.9190    -4.5100 ca         1 3JN      -0.068800
      8 C3          -0.8890    -0.0680    -4.5860 ca         1 3JN      -0.151000
      9 C2          -1.7860    -0.0760    -5.6340 ca         1 3JN      -0.212000
     10 C7          -1.7220     0.8910    -6.6230 ca         1 3JN      -0.124000
     11 C5           0.1690     1.9090    -5.5040 ca         1 3JN      -0.033600
     12 C8           1.2010     2.9600    -5.4350 c          1 3JN       0.931200
     13 O10          0.9470     4.1130    -4.7850 o          1 3JN      -0.862800
     14 O9           2.2820     2.7860    -5.9620 o          1 3JN      -0.862800
     15 C6          -0.7490     1.8850    -6.5720 ca         1 3JN      -0.108600
     16 C12         -0.6830     2.9160    -7.6300 c          1 3JN       0.885200
     17 O14          0.1660     3.7820    -7.5820 o          1 3JN      -0.850300
     18 O13         -1.5670     2.8940    -8.6460 o          1 3JN      -0.850300
     19 H2           2.5870     0.8760    -1.3660 hc         1 3JN       0.026200
     20 H3           2.5850    -0.8930    -1.3570 hc         1 3JN       0.026200
     21 H4           0.2220    -0.7800    -2.5090 ha         1 3JN       0.109000
     22 H5           1.8170     1.6920    -3.3290 ha         1 3JN       0.147000
     23 H6          -0.9500    -0.8300    -3.8180 ha         1 3JN       0.100000
     24 H7          -2.5470    -0.8450    -5.6840 ha         1 3JN       0.066000
     25 H8          -2.4310     0.8720    -7.4420 ha         1 3JN       0.117000
@<TRIPOS>BOND
     1     1     2 1   
     2     3     2 1   
     3     2     4 1   
     4     9     8 ar  
     5     9    10 ar  
     6     8     7 ar  
     7    10    15 ar  
     8     5     4 1   
     9     5     6 2   
    10     7     6 1   
    11     7    11 ar  
    12    17    16 1   
    13    15    11 ar  
    14    15    16 1   
    15    11    12 1   
    16    16    18 1   
    17    14    12 1   
    18    12    13 1   
    19     4    19 1   
    20     4    20 1   
    21     5    21 1   
    22     6    22 1   
    23     8    23 1   
    24     9    24 1   
    25    10    25 1   
@<TRIPOS>SUBSTRUCTURE
     1 3JN         1 TEMP              0 ****  ****    0 ROOT
