@<TRIPOS>MOLECULE
3JO
   85    88     1     0     0
SMALL
bcc


@<TRIPOS>ATOM
      1 CAB          0.0000     0.0000     0.0000 c3         1 3JO      -0.021400
      2 CBJ          1.5070     0.0000     0.0000 cc         1 3JO       0.331600
      3 NAY          2.2200     0.0000     1.1040 nc         1 3JO      -0.550000
      4 CAT          3.5050     0.0000     0.9780 cd         1 3JO       0.464300
      5 SBC          3.9410     0.0010    -0.6750 ss         1 3JO      -0.307300
      6 CBL          2.2400    -0.0040    -1.1340 cd         1 3JO      -0.055400
      7 CBK          1.7090    -0.0120    -2.5140 ca         1 3JO       0.013000
      8 CAS          2.2190     0.8750    -3.4650 ca         1 3JO      -0.092500
      9 CAQ          1.7200     0.8630    -4.7510 ca         1 3JO      -0.082500
     10 CAR          0.7020    -0.9070    -2.8740 ca         1 3JO      -0.092500
     11 CAP          0.2130    -0.9090    -4.1630 ca         1 3JO      -0.082500
     12 CBH          0.7170    -0.0240    -5.1000 ca         1 3JO      -0.123300
     13 CAU          0.1780    -0.0310    -6.5060 c3         1 3JO       0.111300
     14 NAZ          0.9550    -0.9660    -7.3240 ns         1 3JO      -0.196900
     15 CBE          0.6500    -1.1390    -8.6250 c          1 3JO       0.559100
     16 OAG         -0.2690    -0.5190    -9.1200 o          1 3JO      -0.627100
     17 CBO          1.4490    -2.1010    -9.4650 c3         1 3JO      -0.030300
     18 CAW          2.9200    -1.6390    -9.5360 c3         1 3JO      -0.054400
     19 CBM          3.3150    -1.9610   -11.0010 c3         1 3JO       0.182100
     20 OAJ          3.6830    -3.3350   -11.1430 oh         1 3JO      -0.571800
     21 CAX          1.9940    -1.6610   -11.7540 c3         1 3JO       0.009000
     22 NBQ          0.9280    -2.1140   -10.8400 n          1 3JO      -0.117800
     23 CBG         -0.3160    -2.4810   -11.2070 c          1 3JO       0.613100
     24 OAI         -1.1390    -2.7600   -10.3610 o          1 3JO      -0.639100
     25 CBP         -0.6830    -2.5450   -12.6660 c3         1 3JO      -0.048300
     26 CBR         -1.3510    -1.2330   -13.0830 c3         1 3JO      -0.067000
     27 CAD         -2.6750    -1.0740   -12.3320 c3         1 3JO      -0.017767
     28 CAE         -0.4280    -0.0610   -12.7400 c3         1 3JO      -0.017767
     29 CAC         -1.6160    -1.2500   -14.5890 c3         1 3JO      -0.017767
     30 NBB         -1.6120    -3.6570   -12.8880 ns         1 3JO      -0.177900
     31 C           -1.6940    -4.2340   -14.1040 c          1 3JO       0.554100
     32 O           -1.0010    -3.8330   -15.0130 o          1 3JO      -0.617100
     33 CA          -2.6500    -5.3770   -14.3310 c3         1 3JO      -0.028300
     34 N           -2.9140    -5.5140   -15.7650 ns         1 3JO      -0.183900
     35 CBD         -1.8990    -5.7630   -16.6170 c          1 3JO       0.578100
     36 OAF         -0.7670    -5.8730   -16.1960 o          1 3JO      -0.620100
     37 CAA         -2.1710    -5.9040   -18.0920 c3         1 3JO      -0.067100
     38 CB          -2.0300    -6.6720   -13.8010 c3         1 3JO      -0.004100
     39 CG          -3.0320    -7.7920   -13.9160 ca         1 3JO      -0.091300
     40 CD1         -3.9050    -8.0490   -12.8750 ca         1 3JO      -0.101500
     41 CE1         -4.8240    -9.0750   -12.9810 ca         1 3JO      -0.099500
     42 CZ          -4.8700    -9.8460   -14.1280 ca         1 3JO      -0.105000
     43 CE2         -3.9990    -9.5880   -15.1690 ca         1 3JO      -0.099500
     44 CD2         -3.0820    -8.5590   -15.0650 ca         1 3JO      -0.101500
     45 H1          -0.3610     0.6970    -0.7460 hc         1 3JO       0.016700
     46 H2          -0.3610     0.2980     0.9770 hc         1 3JO       0.016700
     47 H3          -0.3610    -0.9950    -0.2310 hc         1 3JO       0.016700
     48 H4           4.2070     0.0010     1.8030 h5         1 3JO       0.025100
     49 H5           3.0040     1.5700    -3.1940 ha         1 3JO       0.117000
     50 H6           2.1130     1.5520    -5.4890 ha         1 3JO       0.111000
     51 H7           0.3060    -1.6010    -2.1420 ha         1 3JO       0.117000
     52 H8          -0.5710    -1.6020    -4.4430 ha         1 3JO       0.111000
     53 H9           0.2530     0.9650    -6.9260 h1         1 3JO       0.031700
     54 H10         -0.8610    -0.3400    -6.4930 h1         1 3JO       0.031700
     55 H11          1.7130    -1.4770    -6.9150 hn         1 3JO       0.176500
     56 H12          1.3970    -3.0980    -9.0440 h1         1 3JO       0.053700
     57 H13          3.5310    -2.2030    -8.8430 hc         1 3JO       0.033700
     58 H14          2.9950    -0.5750    -9.3460 hc         1 3JO       0.033700
     59 H15          4.1070    -1.3040   -11.3390 h1         1 3JO       0.013700
     60 H16          4.5970    -3.3940   -11.3650 ho         1 3JO       0.394000
     61 H17          1.9020    -0.5970   -11.9400 h1         1 3JO       0.043200
     62 H18          1.9550    -2.2180   -12.6820 h1         1 3JO       0.043200
     63 H19          0.2110    -2.6980   -13.2580 h1         1 3JO       0.068700
     64 H20         -3.2990    -1.9410   -12.5130 hc         1 3JO       0.016144
     65 H21         -3.1840    -0.1840   -12.6820 hc         1 3JO       0.016144
     66 H22         -2.4810    -0.9840   -11.2700 hc         1 3JO       0.016144
     67 H23          0.5200    -0.1870   -13.2480 hc         1 3JO       0.016144
     68 H24         -0.8890     0.8660   -13.0600 hc         1 3JO       0.016144
     69 H25         -0.2630    -0.0320   -11.6700 hc         1 3JO       0.016144
     70 H26         -0.7390    -1.6230   -15.1050 hc         1 3JO       0.016144
     71 H27         -2.4600    -1.8950   -14.7990 hc         1 3JO       0.016144
     72 H28         -1.8350    -0.2450   -14.9280 hc         1 3JO       0.016144
     73 H29         -2.1770    -3.9950   -12.1340 hn         1 3JO       0.194500
     74 H30         -3.5790    -5.1810   -13.8090 h1         1 3JO       0.036700
     75 H31         -3.8480    -5.4210   -16.1130 hn         1 3JO       0.171500
     76 H32         -3.1530    -6.3360   -18.2390 hc         1 3JO       0.020700
     77 H33         -1.4230    -6.5480   -18.5370 hc         1 3JO       0.020700
     78 H34         -2.1320    -4.9280   -18.5610 hc         1 3JO       0.020700
     79 H35         -1.7530    -6.5400   -12.7620 hc         1 3JO       0.051200
     80 H36         -1.1480    -6.9140   -14.3820 hc         1 3JO       0.051200
     81 H37         -3.8680    -7.4450   -11.9760 ha         1 3JO       0.109500
     82 H38         -5.5070    -9.2770   -12.1650 ha         1 3JO       0.102000
     83 H39         -5.5900   -10.6520   -14.2110 ha         1 3JO       0.102000
     84 H40         -4.0360   -10.1910   -16.0690 ha         1 3JO       0.102000
     85 H41         -2.3990    -8.3570   -15.8810 ha         1 3JO       0.109500
@<TRIPOS>BOND
     1     1     2 1   
     2     1    45 1   
     3     1    46 1   
     4     1    47 1   
     5     2     3 1   
     6     2     6 2   
     7     3     4 2   
     8     4     5 1   
     9     4    48 1   
    10     5     6 1   
    11     6     7 1   
    12     7     8 ar  
    13     7    10 ar  
    14     8     9 ar  
    15     8    49 1   
    16     9    12 ar  
    17     9    50 1   
    18    10    11 ar  
    19    10    51 1   
    20    11    12 ar  
    21    11    52 1   
    22    12    13 1   
    23    13    14 1   
    24    13    53 1   
    25    13    54 1   
    26    14    15 1   
    27    14    55 1   
    28    15    16 2   
    29    15    17 1   
    30    17    18 1   
    31    17    22 1   
    32    17    56 1   
    33    18    19 1   
    34    18    57 1   
    35    18    58 1   
    36    19    20 1   
    37    19    21 1   
    38    19    59 1   
    39    20    60 1   
    40    21    22 1   
    41    21    61 1   
    42    21    62 1   
    43    22    23 1   
    44    23    24 2   
    45    23    25 1   
    46    25    26 1   
    47    25    30 1   
    48    25    63 1   
    49    26    27 1   
    50    26    28 1   
    51    26    29 1   
    52    27    64 1   
    53    27    65 1   
    54    27    66 1   
    55    28    67 1   
    56    28    68 1   
    57    28    69 1   
    58    29    70 1   
    59    29    71 1   
    60    29    72 1   
    61    30    31 1   
    62    30    73 1   
    63    31    32 2   
    64    31    33 1   
    65    33    34 1   
    66    33    38 1   
    67    33    74 1   
    68    34    35 1   
    69    34    75 1   
    70    35    36 2   
    71    35    37 1   
    72    37    76 1   
    73    37    77 1   
    74    37    78 1   
    75    38    39 1   
    76    38    79 1   
    77    38    80 1   
    78    39    40 ar  
    79    39    44 ar  
    80    40    41 ar  
    81    40    81 1   
    82    41    42 ar  
    83    41    82 1   
    84    42    43 ar  
    85    42    83 1   
    86    43    44 ar  
    87    43    84 1   
    88    44    85 1   
@<TRIPOS>SUBSTRUCTURE
     1 3JO         1 TEMP              0 ****  ****    0 ROOT
