@<TRIPOS>MOLECULE
molecule
   69    72     1     0     0
SMALL
bcc


@<TRIPOS>ATOM
      1 CAC          0.0000     0.0000     0.0000 c3         1 3JP       0.126700
      2 OAW          1.4290     0.0000     0.0000 os         1 3JP      -0.308900
      3 CBE          2.0460     0.0000     1.2110 ca         1 3JP       0.151100
      4 CAO          1.2920    -0.0060     2.3740 ca         1 3JP      -0.227000
      5 CBD          3.4350     0.0000     1.2850 ca         1 3JP       0.080100
      6 OAV          4.1780     0.0010     0.1450 os         1 3JP      -0.315900
      7 CAB          5.5990     0.0020     0.2960 c3         1 3JP       0.128700
      8 CAK          4.0620    -0.0000     2.5200 ca         1 3JP      -0.149000
      9 CAJ          3.3100    -0.0010     3.6790 ca         1 3JP      -0.220000
     10 CBB          1.9230    -0.0060     3.6080 ca         1 3JP       0.143100
     11 OAX          1.1850    -0.0130     4.7500 os         1 3JP      -0.340900
     12 CAQ          1.9020    -0.0130     5.9860 c3         1 3JP       0.116400
     13 CAT          0.9090    -0.0200     7.1510 c3         1 3JP       0.103000
     14 NBI          0.1480    -1.2840     7.1400 n          1 3JP      -0.466800
     15 C            0.6470    -2.3140     7.8320 c          1 3JP       0.685500
     16 O            1.6900    -2.1480     8.4500 o          1 3JP      -0.644500
     17 CAU         -1.0880    -1.3430     6.3650 c3         1 3JP       0.107000
     18 CBF         -2.3080    -1.5780     7.2500 c3         1 3JP      -0.097700
     19 CAI         -2.2090    -0.7610     8.5370 c3         1 3JP      -0.084400
     20 CAA         -2.2560     0.7300     8.1980 c3         1 3JP      -0.093100
     21 CBH         -2.4620    -3.0570     7.5860 c3         1 3JP       0.243500
     22 CAS         -2.5920    -3.9050     6.3280 c3         1 3JP      -0.096400
     23 CAP         -1.4400    -4.8940     6.2060 c3         1 3JP      -0.068400
     24 CB          -0.0910    -4.2380     6.4570 c3         1 3JP      -0.097400
     25 CA          -0.0190    -3.6630     7.8730 c3         1 3JP       0.187500
     26 N           -1.3700    -3.5380     8.4230 n3         1 3JP      -0.796500
     27 SBK         -1.6590    -3.9510    10.0040 sy         1 3JP       1.419200
     28 OAE         -0.4150    -3.8370    10.6820 o          1 3JP      -0.619300
     29 OAF         -2.8260    -3.2440    10.3960 o          1 3JP      -0.619300
     30 CBC         -2.0820    -5.6620    10.0260 ca         1 3JP      -0.298500
     31 CAM         -1.0940    -6.6170    10.1730 ca         1 3JP      -0.025000
     32 CAZ         -1.4260    -7.9600    10.1900 ca         1 3JP       0.011900
     33 ClA         -0.1840    -9.1580    10.3740 cl         1 3JP      -0.085900
     34 CAL         -2.7470    -8.3460    10.0620 ca         1 3JP      -0.068000
     35 CBA         -3.7360    -7.3910     9.9160 ca         1 3JP       0.011900
     36 ClB         -5.3960    -7.8750     9.7560 cl         1 3JP      -0.085900
     37 CAN         -3.4040    -6.0470     9.9040 ca         1 3JP      -0.025000
     38 H1          -0.3610     0.0030    -1.0210 h1         1 3JP       0.041033
     39 H2          -0.3610    -0.8860     0.5080 h1         1 3JP       0.041033
     40 H3          -0.3610     0.8830     0.5140 h1         1 3JP       0.041033
     41 H4           0.2100    -0.0100     2.3180 ha         1 3JP       0.149000
     42 H5           5.9040    -0.8830     0.8420 h1         1 3JP       0.039367
     43 H6           6.0660     0.0020    -0.6820 h1         1 3JP       0.039367
     44 H7           5.9030     0.8860     0.8420 h1         1 3JP       0.039367
     45 H8           5.1440     0.0020     2.5780 ha         1 3JP       0.142000
     46 H9           3.8020    -0.0010     4.6440 ha         1 3JP       0.140000
     47 H10          2.5290    -0.8940     6.0400 h1         1 3JP       0.049700
     48 H11          2.5200     0.8750     6.0450 h1         1 3JP       0.049700
     49 H12          1.4490     0.0680     8.0860 h1         1 3JP       0.077700
     50 H13          0.2250     0.8140     7.0480 h1         1 3JP       0.077700
     51 H14         -1.2150    -0.4060     5.8360 h1         1 3JP       0.061700
     52 H15         -1.0140    -2.1510     5.6480 h1         1 3JP       0.061700
     53 H16         -3.1890    -1.2610     6.7050 hc         1 3JP       0.064700
     54 H17         -1.2760    -0.9880     9.0390 hc         1 3JP       0.059200
     55 H18         -3.0390    -1.0090     9.1880 hc         1 3JP       0.059200
     56 H19         -2.4090     0.8540     7.1330 hc         1 3JP       0.034367
     57 H20         -3.0710     1.1970     8.7370 hc         1 3JP       0.034367
     58 H21         -1.3200     1.1950     8.4850 hc         1 3JP       0.034367
     59 H22         -3.3790    -3.1690     8.1510 h1         1 3JP       0.071700
     60 H23         -2.5920    -3.2540     5.4620 hc         1 3JP       0.050200
     61 H24         -3.5250    -4.4530     6.3660 hc         1 3JP       0.050200
     62 H25         -1.4440    -5.3140     5.2070 hc         1 3JP       0.046200
     63 H26         -1.5820    -5.6890     6.9280 hc         1 3JP       0.046200
     64 H27          0.6920    -4.9770     6.3350 hc         1 3JP       0.060200
     65 H28          0.0530    -3.4380     5.7410 hc         1 3JP       0.060200
     66 H29          0.5610    -4.3290     8.5000 h1         1 3JP       0.101700
     67 H30         -0.0630    -6.3120    10.3100 ha         1 3JP       0.167500
     68 H31         -3.0080    -9.3980    10.0760 ha         1 3JP       0.161000
     69 H32         -4.1780    -5.2980     9.7900 ha         1 3JP       0.167500
@<TRIPOS>BOND
     1    33    32 1   
     2    34    32 ar  
     3    34    35 ar  
     4    36    35 1   
     5    32    31 ar  
     6    35    37 ar  
     7    31    30 ar  
     8    12    11 1   
     9    12    13 1   
    10     1     2 1   
    11    20    19 1   
    12    11    10 1   
    13    37    30 ar  
    14     4    10 ar  
    15     4     3 ar  
    16    10     9 ar  
    17    30    27 1   
    18    19    18 1   
    19     2     3 1   
    20    17    14 1   
    21    17    18 1   
    22     3     5 ar  
    23     9     8 ar  
    24    13    14 1   
    25     5     8 ar  
    26     5     6 1   
    27    14    15 1   
    28    18    21 1   
    29     6     7 1   
    30    26    27 1   
    31    26    21 1   
    32    26    25 1   
    33    27    28 2   
    34    27    29 2   
    35    21    22 1   
    36    15    16 2   
    37    15    25 1   
    38    25    24 1   
    39    22    23 1   
    40    24    23 1   
    41     1    38 1   
    42     1    39 1   
    43     1    40 1   
    44     4    41 1   
    45     7    42 1   
    46     7    43 1   
    47     7    44 1   
    48     8    45 1   
    49     9    46 1   
    50    12    47 1   
    51    12    48 1   
    52    13    49 1   
    53    13    50 1   
    54    17    51 1   
    55    17    52 1   
    56    18    53 1   
    57    19    54 1   
    58    19    55 1   
    59    20    56 1   
    60    20    57 1   
    61    20    58 1   
    62    21    59 1   
    63    22    60 1   
    64    22    61 1   
    65    23    62 1   
    66    23    63 1   
    67    24    64 1   
    68    24    65 1   
    69    25    66 1   
    70    31    67 1   
    71    34    68 1   
    72    37    69 1   
@<TRIPOS>SUBSTRUCTURE
     1 3JP         1 TEMP              0 ****  ****    0 ROOT
