@<TRIPOS>MOLECULE
3JQ
   71    74     1     0     0
SMALL
bcc


@<TRIPOS>ATOM
      1 CAB          0.0000     0.0000     0.0000 c3         1 3JQ       0.241700
      2 OAY          1.4290     0.0000     0.0000 os         1 3JQ      -0.290900
      3 CBF          2.0460     0.0000     1.2120 ca         1 3JQ       0.156100
      4 CAM          1.2970    -0.1100     2.3730 ca         1 3JQ      -0.223000
      5 CBE          3.4310     0.1040     1.2890 ca         1 3JQ       0.081100
      6 OAX          4.1690     0.2080     0.1500 os         1 3JQ      -0.293900
      7 CAA          5.5870     0.3120     0.3030 c3         1 3JQ       0.241700
      8 CAK          4.0590     0.1040     2.5230 ca         1 3JQ      -0.131000
      9 CAJ          3.3090    -0.0000     3.6800 ca         1 3JQ      -0.206000
     10 CBD          1.9290    -0.1100     3.6070 ca         1 3JQ       0.153100
     11 OAZ          1.1940    -0.2180     4.7460 os         1 3JQ      -0.321900
     12 CAR          1.8960    -0.0950     5.9850 c3         1 3JQ       0.180400
     13 CAV          0.8960    -0.1240     7.1420 c3         1 3JQ       0.029000
     14 NBL          0.2440    -1.4470     7.1970 n          1 3JQ      -0.094800
     15 C            0.8170    -2.3910     7.9510 c          1 3JQ       0.621500
     16 O            1.8340    -2.1020     8.5680 o          1 3JQ      -0.711500
     17 CAU         -0.9710    -1.6550     6.4120 c3         1 3JQ       0.031000
     18 CBJ         -2.1800    -1.9410     7.2950 c3         1 3JQ      -0.091700
     19 CBH         -2.1720    -1.0440     8.5310 c3         1 3JQ       0.168100
     20 OAG         -0.9050    -1.1460     9.1860 oh         1 3JQ      -0.610800
     21 CAP         -2.4120     0.4070     8.1110 c3         1 3JQ       0.166400
     22 OAF         -2.4760     1.2360     9.2720 oh         1 3JQ      -0.596800
     23 CBK         -2.2140    -3.4050     7.7200 c3         1 3JQ       0.198500
     24 CAT         -2.2550    -4.3330     6.5140 c3         1 3JQ      -0.041400
     25 CAQ         -1.0220    -5.2270     6.4620 c3         1 3JQ      -0.012400
     26 CB           0.2640    -4.4470     6.6870 c3         1 3JQ      -0.045400
     27 CA           0.2650    -3.7860     8.0660 c3         1 3JQ       0.140500
     28 N           -1.0980    -3.7430     8.5940 n3         1 3JQ      -0.482500
     29 SBN         -1.3760    -4.0820    10.1940 sy         1 3JQ       1.055200
     30 OAD         -2.7710    -4.3230    10.3170 o          1 3JQ      -0.586800
     31 OAE         -0.3880    -5.0270    10.5810 o          1 3JQ      -0.586800
     32 CBG         -1.0420    -2.6120    11.1060 ca         1 3JQ      -0.103500
     33 CAN         -2.0800    -1.7750    11.4700 ca         1 3JQ       0.005500
     34 CBB         -1.8190    -0.6190    12.1850 ca         1 3JQ      -0.060600
     35 ClB         -3.1220     0.4330    12.6420 cl         1 3JQ      -0.009900
     36 CAL         -0.5190    -0.3030    12.5370 ca         1 3JQ      -0.063000
     37 CBC          0.5190    -1.1420    12.1730 ca         1 3JQ      -0.060600
     38 ClA          2.1510    -0.7450    12.6140 cl         1 3JQ      -0.009900
     39 CAO          0.2560    -2.3000    11.4620 ca         1 3JQ       0.005500
     40 H1          -0.3610     0.8460     0.5720 h1         1 3JQ      -0.003300
     41 H2          -0.3610     0.0720    -1.0190 h1         1 3JQ      -0.003300
     42 H3          -0.3610    -0.9180     0.4470 h1         1 3JQ      -0.003300
     43 H4           0.2190    -0.1960     2.3160 ha         1 3JQ       0.131000
     44 H5           5.9610    -0.5690     0.8120 h1         1 3JQ      -0.003967
     45 H6           5.8240     1.1940     0.8850 h1         1 3JQ      -0.003967
     46 H7           6.0510     0.3880    -0.6730 h1         1 3JQ      -0.003967
     47 H8           5.1380     0.1870     2.5830 ha         1 3JQ       0.122000
     48 H9           3.8010    -0.0010     4.6450 ha         1 3JQ       0.124000
     49 H10          2.4390     0.8420     6.0010 h1         1 3JQ       0.016700
     50 H11          2.5930    -0.9190     6.0890 h1         1 3JQ       0.016700
     51 H12          1.4170     0.0600     8.0740 h1         1 3JQ       0.044700
     52 H13          0.1460     0.6420     6.9900 h1         1 3JQ       0.044700
     53 H14         -0.8170    -2.4950     5.7450 h1         1 3JQ       0.041200
     54 H15         -1.1670    -0.7650     5.8270 h1         1 3JQ       0.041200
     55 H16         -3.0750    -1.7320     6.7220 hc         1 3JQ       0.043700
     56 H17         -2.9560    -1.3570     9.2100 h1         1 3JQ       0.034700
     57 H18         -0.6910    -0.3200     9.5860 ho         1 3JQ       0.420000
     58 H19         -1.5980     0.7390     7.4760 h1         1 3JQ       0.003700
     59 H20         -3.3450     0.4760     7.5660 h1         1 3JQ       0.003700
     60 H21         -2.9770     2.0110     9.0780 ho         1 3JQ       0.402000
     61 H22         -3.1270    -3.5600     8.2810 h1         1 3JQ       0.063700
     62 H23         -3.1400    -4.9550     6.5760 hc         1 3JQ       0.021700
     63 H24         -2.2970    -3.7370     5.6100 hc         1 3JQ       0.021700
     64 H25         -0.9770    -5.7040     5.4900 hc         1 3JQ       0.020200
     65 H26         -1.1090    -5.9880     7.2280 hc         1 3JQ       0.020200
     66 H27          0.3530    -3.6820     5.9260 hc         1 3JQ       0.027700
     67 H28          1.1070    -5.1250     6.6180 hc         1 3JQ       0.027700
     68 H29          0.8900    -4.3620     8.7380 h1         1 3JQ       0.084700
     69 H30         -3.1030    -2.0550    11.2500 ha         1 3JQ       0.139500
     70 H31         -0.3140     0.6010    13.0970 ha         1 3JQ       0.123000
     71 H32          1.0690    -2.9570    11.1780 ha         1 3JQ       0.139500
@<TRIPOS>BOND
     1     1     2 1   
     2     1    40 1   
     3     1    41 1   
     4     1    42 1   
     5     2     3 1   
     6     3     4 ar  
     7     3     5 ar  
     8     4    10 ar  
     9     4    43 1   
    10     5     6 1   
    11     5     8 ar  
    12     6     7 1   
    13     7    44 1   
    14     7    45 1   
    15     7    46 1   
    16     8     9 ar  
    17     8    47 1   
    18     9    10 ar  
    19     9    48 1   
    20    10    11 1   
    21    11    12 1   
    22    12    13 1   
    23    12    49 1   
    24    12    50 1   
    25    13    14 1   
    26    13    51 1   
    27    13    52 1   
    28    14    15 1   
    29    14    17 1   
    30    15    16 2   
    31    15    27 1   
    32    17    18 1   
    33    17    53 1   
    34    17    54 1   
    35    18    19 1   
    36    18    23 1   
    37    18    55 1   
    38    19    20 1   
    39    19    21 1   
    40    19    56 1   
    41    20    57 1   
    42    21    22 1   
    43    21    58 1   
    44    21    59 1   
    45    22    60 1   
    46    23    24 1   
    47    23    28 1   
    48    23    61 1   
    49    24    25 1   
    50    24    62 1   
    51    24    63 1   
    52    25    26 1   
    53    25    64 1   
    54    25    65 1   
    55    26    27 1   
    56    26    66 1   
    57    26    67 1   
    58    27    28 1   
    59    27    68 1   
    60    28    29 1   
    61    29    30 2   
    62    29    31 2   
    63    29    32 1   
    64    32    33 ar  
    65    32    39 ar  
    66    33    34 ar  
    67    33    69 1   
    68    34    35 1   
    69    34    36 ar  
    70    36    37 ar  
    71    36    70 1   
    72    37    38 1   
    73    37    39 ar  
    74    39    71 1   
@<TRIPOS>SUBSTRUCTURE
     1 3JQ         1 TEMP              0 ****  ****    0 ROOT
