@<TRIPOS>MOLECULE
molecule
   71    74     1     0     0
SMALL
bcc


@<TRIPOS>ATOM
      1 CAB          0.0000     0.0000     0.0000 c3         1 3JR       0.126700
      2 OAY          1.4290     0.0000     0.0000 os         1 3JR      -0.308900
      3 CBF          2.0460     0.0000     1.2120 ca         1 3JR       0.150100
      4 CAM          1.2920    -0.0010     2.3740 ca         1 3JR      -0.227000
      5 CBE          3.4360    -0.0060     1.2870 ca         1 3JR       0.081100
      6 OAX          4.1780    -0.0100     0.1470 os         1 3JR      -0.314900
      7 CAA          5.6000    -0.0150     0.2990 c3         1 3JR       0.127700
      8 CAK          4.0630    -0.0070     2.5220 ca         1 3JR      -0.150000
      9 CAJ          3.3090    -0.0030     3.6800 ca         1 3JR      -0.219000
     10 CBD          1.9240    -0.0030     3.6090 ca         1 3JR       0.142100
     11 OAZ          1.1840     0.0020     4.7500 os         1 3JR      -0.342900
     12 CAR          1.9000     0.0060     5.9870 c3         1 3JR       0.115400
     13 CAV          0.9070     0.0100     7.1510 c3         1 3JR       0.105000
     14 NBL          0.1400    -1.2510     7.1480 n          1 3JR      -0.472800
     15 C            0.6880    -2.3110     7.7490 c          1 3JR       0.686500
     16 O            1.7820    -2.1760     8.2820 o          1 3JR      -0.639500
     17 CAU         -1.1560    -1.2730     6.4750 c3         1 3JR       0.105000
     18 CBJ         -2.3010    -1.5390     7.4450 c3         1 3JR      -0.097700
     19 CBH         -2.0940    -0.7730     8.7510 c3         1 3JR       0.151100
     20 OAG         -3.1320    -1.1120     9.6710 oh         1 3JR      -0.585800
     21 CAP         -2.1310     0.7310     8.4710 c3         1 3JR       0.094400
     22 OAF         -1.8130     1.4470     9.6660 oh         1 3JR      -0.609800
     23 CBK         -2.4360    -3.0290     7.7370 c3         1 3JR       0.249500
     24 CAT         -2.6780    -3.8250     6.4610 c3         1 3JR      -0.096400
     25 CAQ         -1.5480    -4.8140     6.2030 c3         1 3JR      -0.069400
     26 CB          -0.1770    -4.1750     6.3670 c3         1 3JR      -0.097400
     27 CA           0.0170    -3.6580     7.7930 c3         1 3JR       0.186500
     28 N           -1.2820    -3.5470     8.4590 n3         1 3JR      -0.795500
     29 SBN         -1.4410    -4.0190    10.0410 sy         1 3JR       1.410200
     30 OAD         -0.1440    -3.9370    10.6160 o          1 3JR      -0.604300
     31 OAE         -2.5660    -3.3210    10.5570 o          1 3JR      -0.604300
     32 CBG         -1.8740    -5.7260    10.0350 ca         1 3JR      -0.299500
     33 CAN         -0.8840    -6.6910    10.0610 ca         1 3JR      -0.024500
     34 CBB         -1.2250    -8.0330    10.0560 ca         1 3JR       0.010400
     35 ClA          0.0190    -9.2440    10.0890 cl         1 3JR      -0.088900
     36 CAL         -2.5550    -8.4080    10.0250 ca         1 3JR      -0.069000
     37 CBC         -3.5460    -7.4420     9.9990 ca         1 3JR       0.010400
     38 ClB         -5.2160    -7.9130     9.9610 cl         1 3JR      -0.088900
     39 CAO         -3.2050    -6.1020    10.0100 ca         1 3JR      -0.024500
     40 H1          -0.3610    -0.8880     0.5050 h1         1 3JR       0.041033
     41 H2          -0.3610     0.0070    -1.0210 h1         1 3JR       0.041033
     42 H3          -0.3610     0.8810     0.5170 h1         1 3JR       0.041033
     43 H4           0.2100    -0.0010     2.3190 ha         1 3JR       0.149000
     44 H5           5.9080     0.8680     0.8440 h1         1 3JR       0.039700
     45 H6           5.9010    -0.9010     0.8450 h1         1 3JR       0.039700
     46 H7           6.0670    -0.0170    -0.6790 h1         1 3JR       0.039700
     47 H8           5.1440    -0.0090     2.5800 ha         1 3JR       0.143000
     48 H9           3.8010    -0.0040     4.6460 ha         1 3JR       0.140000
     49 H10          2.5230    -0.8780     6.0470 h1         1 3JR       0.051700
     50 H11          2.5230     0.8910     6.0400 h1         1 3JR       0.051700
     51 H12          0.2270     0.8470     7.0420 h1         1 3JR       0.075700
     52 H13          1.4460     0.1030     8.0850 h1         1 3JR       0.075700
     53 H14         -1.1470    -2.0510     5.7220 h1         1 3JR       0.062700
     54 H15         -1.3190    -0.3150     5.9960 h1         1 3JR       0.062700
     55 H16         -3.2210    -1.1980     6.9860 hc         1 3JR       0.069700
     56 H17         -1.1330    -1.0370     9.1760 h1         1 3JR       0.063700
     57 H18         -3.2590    -0.4010    10.2770 ho         1 3JR       0.418000
     58 H19         -1.4090     0.9730     7.7010 h1         1 3JR       0.030200
     59 H20         -3.1230     1.0110     8.1360 h1         1 3JR       0.030200
     60 H21         -2.0960     2.3420     9.5810 ho         1 3JR       0.408000
     61 H22         -3.3030    -3.1590     8.3720 h1         1 3JR       0.091700
     62 H23         -3.6090    -4.3700     6.5560 hc         1 3JR       0.049200
     63 H24         -2.7450    -3.1400     5.6250 hc         1 3JR       0.049200
     64 H25         -1.6390    -5.1940     5.1930 hc         1 3JR       0.047200
     65 H26         -1.6360    -5.6370     6.9030 hc         1 3JR       0.047200
     66 H27          0.5870    -4.9120     6.1500 hc         1 3JR       0.059700
     67 H28         -0.0870    -3.3470     5.6740 hc         1 3JR       0.059700
     68 H29          0.6420    -4.3510     8.3430 h1         1 3JR       0.102700
     69 H30          0.1580    -6.3970    10.0940 ha         1 3JR       0.167500
     70 H31         -2.8220    -9.4580    10.0200 ha         1 3JR       0.160000
     71 H32         -3.9810    -5.3460     9.9900 ha         1 3JR       0.167500
@<TRIPOS>BOND
     1    20    19 1   
     2    22    21 1   
     3    21    19 1   
     4    38    37 1   
     5    19    18 1   
     6    36    37 ar  
     7    36    34 ar  
     8    12    13 1   
     9    12    11 1   
    10    35    34 1   
    11    37    39 ar  
    12    17    18 1   
    13    17    14 1   
    14    34    33 ar  
    15    13    14 1   
    16    18    23 1   
    17    11    10 1   
    18    39    32 ar  
    19    14    15 1   
    20     9    10 ar  
    21     9     8 ar  
    22    10     4 ar  
    23    33    32 ar  
    24    32    29 1   
    25    23    28 1   
    26    23    24 1   
    27     8     5 ar  
    28     4     3 ar  
    29    15    16 2   
    30    15    27 1   
    31    28    29 1   
    32    28    27 1   
    33     5     3 ar  
    34     5     6 1   
    35    24    25 1   
    36     3     2 1   
    37    29    31 2   
    38    29    30 2   
    39     7     6 1   
    40    27    26 1   
    41    25    26 1   
    42     2     1 1   
    43     1    40 1   
    44     1    41 1   
    45     1    42 1   
    46     4    43 1   
    47     7    44 1   
    48     7    45 1   
    49     7    46 1   
    50     8    47 1   
    51     9    48 1   
    52    12    49 1   
    53    12    50 1   
    54    13    51 1   
    55    13    52 1   
    56    17    53 1   
    57    17    54 1   
    58    18    55 1   
    59    19    56 1   
    60    20    57 1   
    61    21    58 1   
    62    21    59 1   
    63    22    60 1   
    64    23    61 1   
    65    24    62 1   
    66    24    63 1   
    67    25    64 1   
    68    25    65 1   
    69    26    66 1   
    70    26    67 1   
    71    27    68 1   
    72    33    69 1   
    73    36    70 1   
    74    39    71 1   
@<TRIPOS>SUBSTRUCTURE
     1 3JR         1 TEMP              0 ****  ****    0 ROOT
