@<TRIPOS>MOLECULE
molecule
   61    64     1     0     0
SMALL
bcc


@<TRIPOS>ATOM
      1 CAA          0.0000     0.0000     0.0000 c3         1 3JS      -0.164100
      2 CAU          1.5070     0.0000     0.0000 c          1 3JS       0.688100
      3 OAC          2.1130     0.0000     1.0500 o          1 3JS      -0.599100
      4 NBF          2.1800     0.0000    -1.1680 n          1 3JS      -0.473800
      5 CAP          1.5720    -0.0010    -2.5110 c3         1 3JS       0.089000
      6 CBC          2.6540    -0.6120    -3.4370 c3         1 3JS       0.126100
      7 OAG          2.6470    -2.0390    -3.3580 oh         1 3JS      -0.593800
      8 CAO          3.9540    -0.0260    -2.8250 c3         1 3JS      -0.098400
      9 CBE          3.6430     0.0050    -1.3130 c3         1 3JS       0.056700
     10 CAW          4.2210     1.2540    -0.6980 c          1 3JS       0.686100
     11 OAE          3.5070     2.2090    -0.4790 o          1 3JS      -0.575100
     12 N            5.5320     1.3100    -0.3900 n          1 3JS      -0.471800
     13 CD2          6.5110     0.2270    -0.6030 c3         1 3JS       0.084000
     14 CG           7.6380     0.5050     0.4230 c3         1 3JS       0.130100
     15 OD1          7.2810     0.0230     1.7200 oh         1 3JS      -0.582800
     16 CB           7.7010     2.0560     0.4040 c3         1 3JS      -0.103400
     17 CA           6.2240     2.4610     0.2060 c3         1 3JS       0.051700
     18 C            6.1390     3.6520    -0.7140 c          1 3JS       0.648100
     19 O            5.5470     3.5620    -1.7680 o          1 3JS      -0.592100
     20 NAS          6.7210     4.8160    -0.3650 ns         1 3JS      -0.588900
     21 CAM          6.6380     5.9740    -1.2590 c3         1 3JS       0.161300
     22 CAX          7.3650     7.1400    -0.6410 ca         1 3JS      -0.113300
     23 CAI          8.7100     7.3280    -0.8990 ca         1 3JS      -0.112500
     24 CAK          9.3810     8.3940    -0.3350 ca         1 3JS      -0.116500
     25 CAH          6.6800     8.0210     0.1780 ca         1 3JS      -0.112500
     26 CAJ          7.3400     9.0910     0.7470 ca         1 3JS      -0.116500
     27 CAZ          8.6990     9.2830     0.4970 ca         1 3JS       0.002000
     28 CBA          9.4120    10.4280     1.1040 cc         1 3JS      -0.103400
     29 SAT         10.4770    11.5520     0.2640 ss         1 3JS      -0.200300
     30 CAL         10.7490    12.4000     1.7230 cd         1 3JS       0.439300
     31 NAR         10.0900    11.8550     2.6900 nc         1 3JS      -0.674000
     32 CAY          9.3580    10.8010     2.4010 cc         1 3JS       0.381600
     33 CAB          8.5390    10.0660     3.4310 c3         1 3JS      -0.116400
     34 H1          -0.3610     0.0530     1.0200 hc         1 3JS       0.059367
     35 H2          -0.3610    -0.9100    -0.4640 hc         1 3JS       0.059367
     36 H3          -0.3610     0.8570    -0.5560 hc         1 3JS       0.059367
     37 H4           1.3430     1.0120    -2.8190 h1         1 3JS       0.057200
     38 H5           0.6800    -0.6150    -2.5180 h1         1 3JS       0.057200
     39 H6           2.5220    -0.2730    -4.4570 h1         1 3JS       0.048700
     40 H7           2.5380    -2.4010    -4.2210 ho         1 3JS       0.403000
     41 H8           4.1340     0.9750    -3.1980 hc         1 3JS       0.072200
     42 H9           4.7960    -0.6760    -3.0270 hc         1 3JS       0.072200
     43 H10          4.0610    -0.8730    -0.8360 h1         1 3JS       0.077700
     44 H11          6.0540    -0.7360    -0.4070 h1         1 3JS       0.056200
     45 H12          6.9030     0.2670    -1.6120 h1         1 3JS       0.056200
     46 H13          8.5760     0.0780     0.0880 h1         1 3JS       0.045700
     47 H14          7.9340    -0.5880     2.0180 ho         1 3JS       0.404000
     48 H15          8.3060     2.4020    -0.4250 hc         1 3JS       0.065200
     49 H16          8.0770     2.4340     1.3470 hc         1 3JS       0.065200
     50 H17          5.7790     2.6980     1.1640 h1         1 3JS       0.091700
     51 H18          7.2050     4.8910     0.5070 hn         1 3JS       0.315500
     52 H19          5.5990     6.2370    -1.4140 h1         1 3JS       0.060200
     53 H20          7.0930     5.7280    -2.2110 h1         1 3JS       0.060200
     54 H21          9.2390     6.6370    -1.5440 ha         1 3JS       0.139000
     55 H22         10.4360     8.5390    -0.5350 ha         1 3JS       0.140000
     56 H23          5.6250     7.8710     0.3720 ha         1 3JS       0.139000
     57 H24          6.8040     9.7790     1.3900 ha         1 3JS       0.140000
     58 H25         11.3860    13.2710     1.8230 h5         1 3JS       0.062100
     59 H26          8.8580    10.3610     4.4230 hc         1 3JS       0.052700
     60 H27          8.6780     8.9990     3.3090 hc         1 3JS       0.052700
     61 H28          7.4910    10.3120     3.3010 hc         1 3JS       0.052700
@<TRIPOS>BOND
     1    31    30 2
     2    31    32 1
     3    30    29 1
     4    33    32 1
     5    32    28 2
     6    29    28 1
     7    28    27 1
     8    27    24 ar
     9    27    26 ar
    10    24    23 ar
    11    26    25 ar
    12    23    22 ar
    13    25    22 ar
    14    22    21 1
    15    21    20 1
    16    20    18 1
    17    16    17 1
    18    16    14 1
    19    18    19 2
    20    18    17 1
    21    17    12 1
    22    14    15 1
    23    14    13 1
    24    12    13 1
    25    12    10 1
    26    11    10 2
    27    10     9 1
    28     8     9 1
    29     8     6 1
    30     9     4 1
    31     6     7 1
    32     6     5 1
    33     4     5 1
    34     4     2 1
    35     3     2 2
    36     2     1 1
    37     1    34 1
    38     1    35 1
    39     1    36 1
    40     5    37 1
    41     5    38 1
    42     6    39 1
    43     7    40 1
    44     8    41 1
    45     8    42 1
    46     9    43 1
    47    13    44 1
    48    13    45 1
    49    14    46 1
    50    15    47 1
    51    16    48 1
    52    16    49 1
    53    17    50 1
    54    20    51 1
    55    21    52 1
    56    21    53 1
    57    23    54 1
    58    24    55 1
    59    25    56 1
    60    26    57 1
    61    30    58 1
    62    33    59 1
    63    33    60 1
    64    33    61 1
@<TRIPOS>SUBSTRUCTURE
     1 3JS         1 TEMP              0 ****  ****    0 ROOT
