@<TRIPOS>MOLECULE
3JS
   61    64     1     0     0
SMALL
bcc


@<TRIPOS>ATOM
      1 CAA          0.0000     0.0000     0.0000 c3         1 3JS      -0.068100
      2 CAU          1.5070     0.0000     0.0000 c          1 3JS       0.612100
      3 OAC          2.1130     0.0000     1.0500 o          1 3JS      -0.645100
      4 NBF          2.1800     0.0000    -1.1680 n          1 3JS      -0.127800
      5 CAP          1.5720    -0.0010    -2.5110 c3         1 3JS       0.029000
      6 CBC          2.6540    -0.6120    -3.4370 c3         1 3JS       0.178100
      7 OAG          2.6470    -2.0390    -3.3580 oh         1 3JS      -0.575800
      8 CAO          3.9540    -0.0260    -2.8250 c3         1 3JS      -0.049400
      9 CBE          3.6430     0.0050    -1.3130 c3         1 3JS      -0.031300
     10 CAW          4.2210     1.2540    -0.6980 c          1 3JS       0.611100
     11 OAE          3.5070     2.2090    -0.4790 o          1 3JS      -0.621100
     12 N            5.5320     1.3100    -0.3900 n          1 3JS      -0.122800
     13 CD2          6.5110     0.2270    -0.6030 c3         1 3JS       0.022000
     14 CG           7.6380     0.5050     0.4230 c3         1 3JS       0.182100
     15 OD1          7.2810     0.0230     1.7200 oh         1 3JS      -0.565800
     16 CB           7.7010     2.0560     0.4040 c3         1 3JS      -0.050400
     17 CA           6.2240     2.4610     0.2060 c3         1 3JS      -0.029300
     18 C            6.1390     3.6520    -0.7140 c          1 3JS       0.563100
     19 O            5.5470     3.5620    -1.7680 o          1 3JS      -0.634100
     20 NAS          6.7210     4.8160    -0.3650 ns         1 3JS      -0.198900
     21 CAM          6.6380     5.9740    -1.2590 c3         1 3JS       0.111300
     22 CAX          7.3650     7.1400    -0.6410 ca         1 3JS      -0.122300
     23 CAI          8.7100     7.3280    -0.8990 ca         1 3JS      -0.082500
     24 CAK          9.3810     8.3940    -0.3350 ca         1 3JS      -0.093000
     25 CAH          6.6800     8.0210     0.1780 ca         1 3JS      -0.082500
     26 CAJ          7.3400     9.0910     0.7470 ca         1 3JS      -0.093000
     27 CAZ          8.6990     9.2830     0.4970 ca         1 3JS       0.012000
     28 CBA          9.4120    10.4280     1.1040 cc         1 3JS      -0.054400
     29 SAT         10.4770    11.5520     0.2640 ss         1 3JS      -0.304300
     30 CAL         10.7490    12.4000     1.7230 cc         1 3JS       0.463300
     31 NAR         10.0900    11.8550     2.6900 nd         1 3JS      -0.550000
     32 CAY          9.3580    10.8010     2.4010 cd         1 3JS       0.329600
     33 CAB          8.5390    10.0660     3.4310 c3         1 3JS      -0.020400
     34 H1          -0.3610     0.0530     1.0200 hc         1 3JS       0.022033
     35 H2          -0.3610    -0.9100    -0.4640 hc         1 3JS       0.022033
     36 H3          -0.3610     0.8570    -0.5560 hc         1 3JS       0.022033
     37 H4           1.3430     1.0120    -2.8190 h1         1 3JS       0.028700
     38 H5           0.6800    -0.6150    -2.5180 h1         1 3JS       0.028700
     39 H6           2.5220    -0.2730    -4.4570 h1         1 3JS       0.011700
     40 H7           2.5380    -2.4010    -4.2210 ho         1 3JS       0.391000
     41 H8           4.1340     0.9750    -3.1980 hc         1 3JS       0.040200
     42 H9           4.7960    -0.6760    -3.0270 hc         1 3JS       0.040200
     43 H10          4.0610    -0.8730    -0.8360 h1         1 3JS       0.048700
     44 H11          6.0540    -0.7360    -0.4070 h1         1 3JS       0.029200
     45 H12          6.9030     0.2670    -1.6120 h1         1 3JS       0.029200
     46 H13          8.5760     0.0780     0.0880 h1         1 3JS       0.009700
     47 H14          7.9340    -0.5880     2.0180 ho         1 3JS       0.391000
     48 H15          8.3060     2.4020    -0.4250 hc         1 3JS       0.032700
     49 H16          8.0770     2.4340     1.3470 hc         1 3JS       0.032700
     50 H17          5.7790     2.6980     1.1640 h1         1 3JS       0.058700
     51 H18          7.2050     4.8910     0.5070 hn         1 3JS       0.176500
     52 H19          5.5990     6.2370    -1.4140 h1         1 3JS       0.030700
     53 H20          7.0930     5.7280    -2.2110 h1         1 3JS       0.030700
     54 H21          9.2390     6.6370    -1.5440 ha         1 3JS       0.111500
     55 H22         10.4360     8.5390    -0.5350 ha         1 3JS       0.116500
     56 H23          5.6250     7.8710     0.3720 ha         1 3JS       0.111500
     57 H24          6.8040     9.7790     1.3900 ha         1 3JS       0.116500
     58 H25         11.3860    13.2710     1.8230 h5         1 3JS       0.025100
     59 H26          8.8580    10.3610     4.4230 hc         1 3JS       0.016033
     60 H27          8.6780     8.9990     3.3090 hc         1 3JS       0.016033
     61 H28          7.4910    10.3120     3.3010 hc         1 3JS       0.016033
@<TRIPOS>BOND
     1     1     2 1   
     2     1    34 1   
     3     1    35 1   
     4     1    36 1   
     5     2     3 2   
     6     2     4 1   
     7     4     5 1   
     8     4     9 1   
     9     5     6 1   
    10     5    37 1   
    11     5    38 1   
    12     6     7 1   
    13     6     8 1   
    14     6    39 1   
    15     7    40 1   
    16     8     9 1   
    17     8    41 1   
    18     8    42 1   
    19     9    10 1   
    20     9    43 1   
    21    10    11 2   
    22    10    12 1   
    23    12    13 1   
    24    12    17 1   
    25    13    14 1   
    26    13    44 1   
    27    13    45 1   
    28    14    15 1   
    29    14    16 1   
    30    14    46 1   
    31    15    47 1   
    32    16    17 1   
    33    16    48 1   
    34    16    49 1   
    35    17    18 1   
    36    17    50 1   
    37    18    19 2   
    38    18    20 1   
    39    20    21 1   
    40    20    51 1   
    41    21    22 1   
    42    21    52 1   
    43    21    53 1   
    44    22    23 ar  
    45    22    25 ar  
    46    23    24 ar  
    47    23    54 1   
    48    24    27 ar  
    49    24    55 1   
    50    25    26 ar  
    51    25    56 1   
    52    26    27 ar  
    53    26    57 1   
    54    27    28 1   
    55    28    29 1   
    56    28    32 2   
    57    29    30 1   
    58    30    31 2   
    59    30    58 1   
    60    31    32 1   
    61    32    33 1   
    62    33    59 1   
    63    33    60 1   
    64    33    61 1   
@<TRIPOS>SUBSTRUCTURE
     1 3JS         1 TEMP              0 ****  ****    0 ROOT
