@<TRIPOS>MOLECULE
molecule
   55    57     1     0     0
SMALL
bcc


@<TRIPOS>ATOM
      1 CAA          0.0000     0.0000     0.0000 c3         1 3JT      -0.085767
      2 CBB          1.5300     0.0000     0.0000 c3         1 3JT      -0.053000
      3 CAB          2.0400     0.0000     1.4430 c3         1 3JT      -0.085767
      4 CAC          2.0390    -1.2500    -0.7200 c3         1 3JT      -0.085767
      5 CAN          2.0410     1.2480    -0.7220 c3         1 3JT      -0.139400
      6 CAT          3.5480     1.2470    -0.7210 c          1 3JT       0.695100
      7 OAD          4.1540     0.3380    -0.1960 o          1 3JT      -0.593100
      8 N            4.2220     2.2580    -1.3060 n          1 3JT      -0.476800
      9 CD2          3.6160     3.4200    -1.9770 c3         1 3JT       0.090000
     10 CG           4.6980     3.9140    -2.9700 c3         1 3JT       0.128100
     11 OD1          4.6910     3.1330    -4.1660 oh         1 3JT      -0.589800
     12 CB           5.9980     3.6770    -2.1570 c3         1 3JT      -0.105400
     13 CA           5.6850     2.3850    -1.3730 c3         1 3JT       0.049700
     14 C            6.2630     2.4760     0.0160 c          1 3JT       0.645100
     15 O            5.5310     2.4290     0.9820 o          1 3JT      -0.583100
     16 NAR          7.5930     2.6100     0.1860 ns         1 3JT      -0.589900
     17 CAM          8.1540     2.6990     1.5360 c3         1 3JT       0.161300
     18 CAV          9.6530     2.8440     1.4480 ca         1 3JT      -0.115300
     19 CAH         10.2200     4.1040     1.3790 ca         1 3JT      -0.108000
     20 CAJ         11.5910     4.2420     1.2990 ca         1 3JT      -0.121000
     21 CAG         10.4540     1.7150     1.4450 ca         1 3JT      -0.108000
     22 CAI         11.8260     1.8410     1.3650 ca         1 3JT      -0.121000
     23 CAW         12.4050     3.1080     1.2890 ca         1 3JT       0.005000
     24 CAX         13.8740     3.2500     1.2030 cc         1 3JT      -0.096400
     25 SAS         14.7670     4.7650     1.1070 ss         1 3JT      -0.202300
     26 CAK         16.2430     3.9040     1.0520 cd         1 3JT       0.439300
     27 NAQ         16.0230     2.6320     1.1030 nc         1 3JT      -0.674000
     28 CAL         14.7710     2.2400     1.1900 cc         1 3JT       0.371200
     29 H1          -0.3610     0.8850     0.5090 hc         1 3JT       0.038589
     30 H2          -0.3610    -0.0020    -1.0210 hc         1 3JT       0.038589
     31 H3          -0.3610    -0.8840     0.5120 hc         1 3JT       0.038589
     32 H4           2.0150     1.0100     1.8350 hc         1 3JT       0.038589
     33 H5           3.0570    -0.3720     1.4670 hc         1 3JT       0.038589
     34 H6           1.4080    -0.6380     2.0490 hc         1 3JT       0.038589
     35 H7           2.0940    -1.0570    -1.7850 hc         1 3JT       0.038589
     36 H8           3.0240    -1.5050    -0.3490 hc         1 3JT       0.038589
     37 H9           1.3600    -2.0740    -0.5380 hc         1 3JT       0.038589
     38 H10          1.6800     1.2480    -1.7430 hc         1 3JT       0.058700
     39 H11          1.6800     2.1330    -0.2120 hc         1 3JT       0.058700
     40 H12          3.3880     4.1940    -1.2540 h1         1 3JT       0.057200
     41 H13          2.7230     3.1210    -2.5130 h1         1 3JT       0.057200
     42 H14          4.5680     4.9680    -3.1860 h1         1 3JT       0.047700
     43 H15          4.6350     3.7040    -4.9140 ho         1 3JT       0.404000
     44 H16          6.8400     3.5250    -2.8210 hc         1 3JT       0.065700
     45 H17          6.1790     4.5010    -1.4780 hc         1 3JT       0.065700
     46 H18          6.1020     1.5310    -1.8940 h1         1 3JT       0.084700
     47 H19          8.2000     2.6160    -0.6100 hn         1 3JT       0.314500
     48 H20          7.7370     3.5590     2.0450 h1         1 3JT       0.061700
     49 H21          7.9100     1.7990     2.0880 h1         1 3JT       0.061700
     50 H22          9.5870     4.9830     1.3870 ha         1 3JT       0.140000
     51 H23         12.0340     5.2290     1.2420 ha         1 3JT       0.137000
     52 H24         10.0030     0.7320     1.5050 ha         1 3JT       0.140000
     53 H25         12.4520     0.9570     1.3600 ha         1 3JT       0.137000
     54 H26         17.2230     4.3600     0.9810 h5         1 3JT       0.063100
     55 H27         14.4830     1.1970     1.2390 h4         1 3JT       0.048100
@<TRIPOS>BOND
     1    27    26 2   
     2    27    28 1   
     3    26    25 1   
     4    28    24 2   
     5    25    24 1   
     6    24    23 1   
     7    23    20 ar  
     8    23    22 ar  
     9    20    19 ar  
    10    22    21 ar  
    11    19    18 ar  
    12    21    18 ar  
    13    18    17 1   
    14    17    16 1   
    15    16    14 1   
    16    12    13 1   
    17    12    10 1   
    18    14    15 2   
    19    14    13 1   
    20    13     8 1   
    21    10    11 1   
    22    10     9 1   
    23     8     9 1   
    24     8     6 1   
    25     7     6 2   
    26     6     5 1   
    27     4     2 1   
    28     5     2 1   
    29     2     3 1   
    30     2     1 1   
    31     1    29 1   
    32     1    30 1   
    33     1    31 1   
    34     3    32 1   
    35     3    33 1   
    36     3    34 1   
    37     4    35 1   
    38     4    36 1   
    39     4    37 1   
    40     5    38 1   
    41     5    39 1   
    42     9    40 1   
    43     9    41 1   
    44    10    42 1   
    45    11    43 1   
    46    12    44 1   
    47    12    45 1   
    48    13    46 1   
    49    16    47 1   
    50    17    48 1   
    51    17    49 1   
    52    19    50 1   
    53    20    51 1   
    54    21    52 1   
    55    22    53 1   
    56    26    54 1   
    57    28    55 1   
@<TRIPOS>SUBSTRUCTURE
     1 3JT         1 TEMP              0 ****  ****    0 ROOT
