@<TRIPOS>MOLECULE
molecule
   58    60     1     0     0
SMALL
bcc


@<TRIPOS>ATOM
      1 CAB          0.0000     0.0000     0.0000 c3         1 3JU      -0.085433
      2 CBC          1.5300     0.0000     0.0000 c3         1 3JU      -0.053000
      3 CAC          2.0410     0.0000     1.4420 c3         1 3JU      -0.085433
      4 CAD          2.0400    -1.2490    -0.7220 c3         1 3JU      -0.085433
      5 CAN          2.0400     1.2490    -0.7210 c3         1 3JU      -0.139400
      6 CAT          1.5380     2.4800    -0.0110 c          1 3JU       0.692100
      7 OAE          0.8410     2.3680     0.9750 o          1 3JU      -0.591100
      8 N            1.8640     3.7030    -0.4710 n          1 3JU      -0.484800
      9 CD2          2.6950     3.9830    -1.6580 c3         1 3JU       0.087000
     10 CG           2.2700     5.4000    -2.1140 c3         1 3JU       0.129100
     11 OD1          3.3170     6.0380    -2.8480 oh         1 3JU      -0.595800
     12 CB           2.0330     6.1080    -0.7530 c3         1 3JU      -0.104400
     13 CA           1.4440     4.9820     0.1220 c3         1 3JU       0.042700
     14 C           -0.0590     5.0720     0.1350 c          1 3JU       0.646100
     15 O           -0.7250     4.1600    -0.3070 o          1 3JU      -0.581100
     16 NAR         -0.6650     6.1660     0.6370 ns         1 3JU      -0.589900
     17 CAM         -2.1280     6.2540     0.6510 c3         1 3JU       0.161300
     18 CAV         -2.5470     7.5670     1.2600 ca         1 3JU      -0.114300
     19 CAI         -2.7530     7.6570     2.6250 ca         1 3JU      -0.112500
     20 CAK         -3.1380     8.8560     3.1900 ca         1 3JU      -0.116500
     21 CAH         -2.7170     8.6780     0.4540 ca         1 3JU      -0.112500
     22 CAJ         -3.1010     9.8820     1.0060 ca         1 3JU      -0.116500
     23 CAX         -3.3160     9.9790     2.3810 ca         1 3JU       0.003000
     24 CAY         -3.7290    11.2670     2.9800 cc         1 3JU      -0.103400
     25 SAS         -3.0000    12.8400     2.6610 ss         1 3JU      -0.205300
     26 CAL         -4.1010    13.5790     3.7400 cc         1 3JU       0.442300
     27 NAQ         -4.8950    12.6960     4.2470 nd         1 3JU      -0.675000
     28 CAW         -4.7340    11.4490     3.8630 cd         1 3JU       0.384600
     29 CAA         -5.5920    10.3200     4.3680 c3         1 3JU      -0.117400
     30 H1          -0.3610     0.6130     0.8170 hc         1 3JU       0.038811
     31 H2          -0.3610     0.4010    -0.9390 hc         1 3JU       0.038811
     32 H3          -0.3610    -1.0140     0.1220 hc         1 3JU       0.038811
     33 H4           2.0710    -1.0170     1.8140 hc         1 3JU       0.038811
     34 H5           1.3760     0.5920     2.0600 hc         1 3JU       0.038811
     35 H6           3.0370     0.4250     1.4720 hc         1 3JU       0.038811
     36 H7           3.1230    -1.2500    -0.7210 hc         1 3JU       0.038811
     37 H8           1.6790    -1.2480    -1.7430 hc         1 3JU       0.038811
     38 H9           1.6780    -2.1340    -0.2110 hc         1 3JU       0.038811
     39 H10          3.1240     1.2500    -0.7210 hc         1 3JU       0.059200
     40 H11          1.6800     1.2490    -1.7430 hc         1 3JU       0.059200
     41 H12          3.7450     3.9740    -1.3910 h1         1 3JU       0.057700
     42 H13          2.4900     3.2610    -2.4380 h1         1 3JU       0.057700
     43 H14          1.3530     5.3600    -2.6900 h1         1 3JU       0.057700
     44 H15          2.9920     6.3050    -3.6920 ho         1 3JU       0.408000
     45 H16          2.9690     6.4630    -0.3400 hc         1 3JU       0.068200
     46 H17          1.3220     6.9180    -0.8630 hc         1 3JU       0.068200
     47 H18          1.8310     5.0620     1.1300 h1         1 3JU       0.078700
     48 H19         -0.1160     6.9050     1.0300 hn         1 3JU       0.314500
     49 H20         -2.5030     6.1910    -0.3630 h1         1 3JU       0.061200
     50 H21         -2.5330     5.4380     1.2370 h1         1 3JU       0.061200
     51 H22         -2.6140     6.7840     3.2520 ha         1 3JU       0.139000
     52 H23         -3.3020     8.9260     4.2580 ha         1 3JU       0.140500
     53 H24         -2.5490     8.6020    -0.6140 ha         1 3JU       0.139000
     54 H25         -3.2360    10.7510     0.3730 ha         1 3JU       0.140500
     55 H26         -4.1270    14.6380     3.9680 h5         1 3JU       0.062100
     56 H27         -6.4840    10.7240     4.8330 hc         1 3JU       0.053367
     57 H28         -5.8750     9.6820     3.5400 hc         1 3JU       0.053367
     58 H29         -5.0360     9.7410     5.0960 hc         1 3JU       0.053367
@<TRIPOS>BOND
     1     1     2 1
     2     3     2 1
     3     2     5 1
     4     2     4 1
     5     5     6 1
     6     6     7 2
     7     6     8 1
     8     9     8 1
     9     9    10 1
    10     8    13 1
    11    11    10 1
    12    10    12 1
    13    13    14 1
    14    13    12 1
    15    15    14 2
    16    14    16 1
    17    16    17 1
    18    17    18 1
    19    18    21 ar
    20    18    19 ar
    21    21    22 ar
    22    19    20 ar
    23    22    23 ar
    24    20    23 ar
    25    23    24 1
    26    24    25 1
    27    24    28 2
    28    25    26 1
    29    28    29 1
    30    28    27 1
    31    26    27 2
    32     1    30 1
    33     1    31 1
    34     1    32 1
    35     3    33 1
    36     3    34 1
    37     3    35 1
    38     4    36 1
    39     4    37 1
    40     4    38 1
    41     5    39 1
    42     5    40 1
    43     9    41 1
    44     9    42 1
    45    10    43 1
    46    11    44 1
    47    12    45 1
    48    12    46 1
    49    13    47 1
    50    16    48 1
    51    17    49 1
    52    17    50 1
    53    19    51 1
    54    20    52 1
    55    21    53 1
    56    22    54 1
    57    26    55 1
    58    29    56 1
    59    29    57 1
    60    29    58 1
@<TRIPOS>SUBSTRUCTURE
     1 3JU         1 TEMP              0 ****  ****    0 ROOT
