@<TRIPOS>MOLECULE
3JU
   58    60     1     0     0
SMALL
bcc


@<TRIPOS>ATOM
      1 CAB          0.0000     0.0000     0.0000 c3         1 3JU      -0.006767
      2 CBC          1.5300     0.0000     0.0000 c3         1 3JU      -0.047000
      3 CAC          2.0410     0.0000     1.4420 c3         1 3JU      -0.006767
      4 CAD          2.0400    -1.2490    -0.7220 c3         1 3JU      -0.006767
      5 CAN          2.0400     1.2490    -0.7210 c3         1 3JU      -0.090400
      6 CAT          1.5380     2.4800    -0.0110 c          1 3JU       0.618100
      7 OAE          0.8410     2.3680     0.9750 o          1 3JU      -0.629100
      8 N            1.8640     3.7030    -0.4710 n          1 3JU      -0.145800
      9 CD2          2.6950     3.9830    -1.6580 c3         1 3JU       0.028000
     10 CG           2.2700     5.4000    -2.1140 c3         1 3JU       0.180100
     11 OD1          3.3170     6.0380    -2.8480 oh         1 3JU      -0.573800
     12 CB           2.0330     6.1080    -0.7530 c3         1 3JU      -0.052400
     13 CA           1.4440     4.9820     0.1220 c3         1 3JU      -0.031300
     14 C           -0.0590     5.0720     0.1350 c          1 3JU       0.560100
     15 O           -0.7250     4.1600    -0.3070 o          1 3JU      -0.623100
     16 NAR         -0.6650     6.1660     0.6370 ns         1 3JU      -0.200900
     17 CAM         -2.1280     6.2540     0.6510 c3         1 3JU       0.112300
     18 CAV         -2.5470     7.5670     1.2600 ca         1 3JU      -0.123300
     19 CAI         -2.7530     7.6570     2.6250 ca         1 3JU      -0.082500
     20 CAK         -3.1380     8.8560     3.1900 ca         1 3JU      -0.092500
     21 CAH         -2.7170     8.6780     0.4540 ca         1 3JU      -0.082500
     22 CAJ         -3.1010     9.8820     1.0060 ca         1 3JU      -0.092500
     23 CAX         -3.3160     9.9790     2.3810 ca         1 3JU       0.013000
     24 CAY         -3.7290    11.2670     2.9800 cc         1 3JU      -0.055400
     25 SAS         -3.0000    12.8400     2.6610 ss         1 3JU      -0.308300
     26 CAL         -4.1010    13.5790     3.7400 cc         1 3JU       0.464300
     27 NAQ         -4.8950    12.6960     4.2470 nd         1 3JU      -0.550000
     28 CAW         -4.7340    11.4490     3.8630 cd         1 3JU       0.332600
     29 CAA         -5.5920    10.3200     4.3680 c3         1 3JU      -0.021400
     30 H1          -0.3610     0.6130     0.8170 hc         1 3JU       0.010478
     31 H2          -0.3610     0.4010    -0.9390 hc         1 3JU       0.010478
     32 H3          -0.3610    -1.0140     0.1220 hc         1 3JU       0.010478
     33 H4           2.0710    -1.0170     1.8140 hc         1 3JU       0.010478
     34 H5           1.3760     0.5920     2.0600 hc         1 3JU       0.010478
     35 H6           3.0370     0.4250     1.4720 hc         1 3JU       0.010478
     36 H7           3.1230    -1.2500    -0.7210 hc         1 3JU       0.010478
     37 H8           1.6790    -1.2480    -1.7430 hc         1 3JU       0.010478
     38 H9           1.6780    -2.1340    -0.2110 hc         1 3JU       0.010478
     39 H10          3.1240     1.2500    -0.7210 hc         1 3JU       0.030700
     40 H11          1.6800     1.2490    -1.7430 hc         1 3JU       0.030700
     41 H12          3.7450     3.9740    -1.3910 h1         1 3JU       0.028200
     42 H13          2.4900     3.2610    -2.4380 h1         1 3JU       0.028200
     43 H14          1.3530     5.3600    -2.6900 h1         1 3JU       0.019700
     44 H15          2.9920     6.3050    -3.6920 ho         1 3JU       0.394000
     45 H16          2.9690     6.4630    -0.3400 hc         1 3JU       0.034700
     46 H17          1.3220     6.9180    -0.8630 hc         1 3JU       0.034700
     47 H18          1.8310     5.0620     1.1300 h1         1 3JU       0.046700
     48 H19         -0.1160     6.9050     1.0300 hn         1 3JU       0.177500
     49 H20         -2.5030     6.1910    -0.3630 h1         1 3JU       0.031700
     50 H21         -2.5330     5.4380     1.2370 h1         1 3JU       0.031700
     51 H22         -2.6140     6.7840     3.2520 ha         1 3JU       0.111000
     52 H23         -3.3020     8.9260     4.2580 ha         1 3JU       0.117000
     53 H24         -2.5490     8.6020    -0.6140 ha         1 3JU       0.111000
     54 H25         -3.2360    10.7510     0.3730 ha         1 3JU       0.117000
     55 H26         -4.1270    14.6380     3.9680 h5         1 3JU       0.025100
     56 H27         -6.4840    10.7240     4.8330 hc         1 3JU       0.017033
     57 H28         -5.8750     9.6820     3.5400 hc         1 3JU       0.017033
     58 H29         -5.0360     9.7410     5.0960 hc         1 3JU       0.017033
@<TRIPOS>BOND
     1     1     2 1   
     2     1    30 1   
     3     1    31 1   
     4     1    32 1   
     5     2     3 1   
     6     2     4 1   
     7     2     5 1   
     8     3    33 1   
     9     3    34 1   
    10     3    35 1   
    11     4    36 1   
    12     4    37 1   
    13     4    38 1   
    14     5     6 1   
    15     5    39 1   
    16     5    40 1   
    17     6     7 2   
    18     6     8 1   
    19     8     9 1   
    20     8    13 1   
    21     9    10 1   
    22     9    41 1   
    23     9    42 1   
    24    10    11 1   
    25    10    12 1   
    26    10    43 1   
    27    11    44 1   
    28    12    13 1   
    29    12    45 1   
    30    12    46 1   
    31    13    14 1   
    32    13    47 1   
    33    14    15 2   
    34    14    16 1   
    35    16    17 1   
    36    16    48 1   
    37    17    18 1   
    38    17    49 1   
    39    17    50 1   
    40    18    19 ar  
    41    18    21 ar  
    42    19    20 ar  
    43    19    51 1   
    44    20    23 ar  
    45    20    52 1   
    46    21    22 ar  
    47    21    53 1   
    48    22    23 ar  
    49    22    54 1   
    50    23    24 1   
    51    24    25 1   
    52    24    28 2   
    53    25    26 1   
    54    26    27 2   
    55    26    55 1   
    56    27    28 1   
    57    28    29 1   
    58    29    56 1   
    59    29    57 1   
    60    29    58 1   
@<TRIPOS>SUBSTRUCTURE
     1 3JU         1 TEMP              0 ****  ****    0 ROOT
