@<TRIPOS>MOLECULE
molecule
   58    60     1     0     0
SMALL
bcc


@<TRIPOS>ATOM
      1 CAB          0.0000     0.0000     0.0000 c3         1 3JV      -0.085767
      2 CBC          1.5300     0.0000     0.0000 c3         1 3JV      -0.053000
      3 CAC          2.0400     0.0000     1.4420 c3         1 3JV      -0.085767
      4 CAD          2.0390    -1.2500    -0.7210 c3         1 3JV      -0.085767
      5 CAN          2.0390     1.2490    -0.7220 c3         1 3JV      -0.139400
      6 CAT          1.5370     2.4800    -0.0110 c          1 3JV       0.694100
      7 OAE          0.8400     2.3690     0.9750 o          1 3JV      -0.594100
      8 N            1.8620     3.7030    -0.4720 n          1 3JV      -0.475800
      9 CD2          2.6980     3.9830    -1.6540 c3         1 3JV       0.089000
     10 CG           3.2730     5.4000    -1.4080 c3         1 3JV       0.128100
     11 OD1          4.4030     5.3500    -0.5350 oh         1 3JV      -0.589800
     12 CB           2.0730     6.1080    -0.7240 c3         1 3JV      -0.105400
     13 CA           1.4390     4.9820     0.1190 c3         1 3JV       0.049700
     14 C           -0.0640     5.0990     0.0810 c          1 3JV       0.645100
     15 O           -0.7300     4.1970    -0.3830 o          1 3JV      -0.583100
     16 NAR         -0.6660     6.2040     0.5630 ns         1 3JV      -0.588900
     17 CAM         -2.1260     6.3170     0.5260 c3         1 3JV       0.160300
     18 CAW         -2.5430     7.6370     1.1220 ca         1 3JV      -0.108300
     19 CAL         -2.6670     8.7500     0.3090 ca         1 3JV      -0.114000
     20 CAV         -3.0490     9.9620     0.8480 ca         1 3JV      -0.070300
     21 CAA         -3.1830    11.1730    -0.0390 c3         1 3JV      -0.052800
     22 CAH         -2.8050     7.7290     2.4770 ca         1 3JV      -0.117000
     23 CAI         -3.1870     8.9350     3.0270 ca         1 3JV      -0.108000
     24 CAY         -3.3090    10.0640     2.2140 ca         1 3JV      -0.007000
     25 CAX         -3.7190    11.3590     2.7980 cc         1 3JV      -0.096400
     26 SAS         -2.9090    12.9060     2.5620 ss         1 3JV      -0.205300
     27 CAJ         -4.0630    13.6740     3.5620 cd         1 3JV       0.435300
     28 NAQ         -4.9270    12.8150     3.9920 nc         1 3JV      -0.676000
     29 CAK         -4.7820    11.5680     3.6020 cc         1 3JV       0.373200
     30 H1          -0.3610     0.3730    -0.9510 hc         1 3JV       0.038589
     31 H2          -0.3610    -1.0100     0.1520 hc         1 3JV       0.038589
     32 H3          -0.3610     0.6360     0.7990 hc         1 3JV       0.038589
     33 H4           2.0950    -1.0190     1.8050 hc         1 3JV       0.038589
     34 H5           1.3610     0.5700     2.0650 hc         1 3JV       0.038589
     35 H6           3.0250     0.4490     1.4760 hc         1 3JV       0.038589
     36 H7           3.1220    -1.2520    -0.7180 hc         1 3JV       0.038589
     37 H8           1.6810    -1.2480    -1.7430 hc         1 3JV       0.038589
     38 H9           1.6750    -2.1340    -0.2120 hc         1 3JV       0.038589
     39 H10          3.1230     1.2490    -0.7220 hc         1 3JV       0.058700
     40 H11          1.6780     1.2490    -1.7430 hc         1 3JV       0.058700
     41 H12          2.0920     3.9750    -2.5520 h1         1 3JV       0.057200
     42 H13          3.5010     3.2590    -1.7260 h1         1 3JV       0.057200
     43 H14          3.5200     5.8830    -2.3460 h1         1 3JV       0.047700
     44 H15          5.1310     5.7930    -0.9380 ho         1 3JV       0.404000
     45 H16          2.4180     6.9130    -0.0860 hc         1 3JV       0.065700
     46 H17          1.3720     6.4710    -1.4650 hc         1 3JV       0.065700
     47 H18          1.7920     5.0470     1.1410 h1         1 3JV       0.084700
     48 H19         -0.1190     6.9320     0.9760 hn         1 3JV       0.314500
     49 H20         -2.4670     6.2600    -0.5010 h1         1 3JV       0.061700
     50 H21         -2.5650     5.5080     1.0980 h1         1 3JV       0.061700
     51 H22         -2.4710     8.6680    -0.7540 ha         1 3JV       0.138000
     52 H23         -3.1900    10.8620    -1.0770 hc         1 3JV       0.049033
     53 H24         -4.1090    11.6870     0.1900 hc         1 3JV       0.049033
     54 H25         -2.3470    11.8400     0.1320 hc         1 3JV       0.049033
     55 H26         -2.7110     6.8530     3.1070 ha         1 3JV       0.142000
     56 H27         -3.3900     9.0060     4.0890 ha         1 3JV       0.140000
     57 H28         -4.0660    14.7300     3.8040 h5         1 3JV       0.062100
     58 H29         -5.4540    10.7750     3.9070 h4         1 3JV       0.050100
@<TRIPOS>BOND
     1    28    27 2
     2    28    29 1
     3    27    26 1
     4    29    25 2
     5    26    25 1
     6    25    24 1
     7    24    20 ar
     8    24    23 ar
     9    21    20 1
    10    20    19 ar
    11    23    22 ar
    12    19    18 ar
    13    22    18 ar
    14    18    17 1
    15    17    16 1
    16    16    14 1
    17    12    13 1
    18    12    10 1
    19    14    15 2
    20    14    13 1
    21    13     8 1
    22    10    11 1
    23    10     9 1
    24     8     9 1
    25     8     6 1
    26     7     6 2
    27     6     5 1
    28     3     2 1
    29     5     2 1
    30     2     1 1
    31     2     4 1
    32     1    30 1
    33     1    31 1
    34     1    32 1
    35     3    33 1
    36     3    34 1
    37     3    35 1
    38     4    36 1
    39     4    37 1
    40     4    38 1
    41     5    39 1
    42     5    40 1
    43     9    41 1
    44     9    42 1
    45    10    43 1
    46    11    44 1
    47    12    45 1
    48    12    46 1
    49    13    47 1
    50    16    48 1
    51    17    49 1
    52    17    50 1
    53    19    51 1
    54    21    52 1
    55    21    53 1
    56    21    54 1
    57    22    55 1
    58    23    56 1
    59    27    57 1
    60    29    58 1
@<TRIPOS>SUBSTRUCTURE
     1 3JV         1 TEMP              0 ****  ****    0 ROOT
