@<TRIPOS>MOLECULE
3JW
   43    46     1     0     0
SMALL
bcc


@<TRIPOS>ATOM
      1 C4           0.0000     0.0000     0.0000 ca         1 3JW       0.581800
      2 C5           1.4050     0.0000     0.0000 ca         1 3JW      -0.330400
      3 C6           2.0810     0.0000     1.2360 ca         1 3JW       0.251800
      4 N1           1.3590    -0.0000     2.3550 nb         1 3JW      -0.644000
      5 N3          -0.6310     0.0060     1.1730 nb         1 3JW      -0.659000
      6 CAA         -3.1770     3.8670    -3.5990 c3         1 3JW      -0.002100
      7 CAB         -4.0100     3.2190    -2.5610 c3         1 3JW       0.029400
      8 OAY         -6.4750     2.2000    -2.5280 o          1 3JW      -0.572800
      9 OAZ         -5.5080     2.7900    -4.7270 o          1 3JW      -0.572800
     10 NAD         -4.7860     0.7820    -3.5580 nq         1 3JW      -0.671500
     11 CAJ         -4.8210    -0.4510    -2.7560 cy         1 3JW       0.190300
     12 CAE         -4.0290     0.0350    -4.5730 cy         1 3JW       0.190300
     13 CAF         -3.5130    -0.8700    -3.4420 cy         1 3JW      -0.040300
     14 CAG         -3.4450    -2.3530    -3.8110 c3         1 3JW       0.096700
     15 CAH         -2.2120    -2.6140    -4.5700 c1         1 3JW       0.160700
     16 NAI         -1.2520    -2.7990    -5.1480 n1         1 3JW      -0.355800
     17 NAK         -2.3020    -0.3820    -2.7760 na         1 3JW       0.488400
     18 CAL         -1.9490    -0.6320    -1.5020 cc         1 3JW      -0.200300
     19 NAO         -1.3120     0.4170    -3.3580 nc         1 3JW      -0.650800
     20 CAN         -0.3890     0.6520    -2.4650 cd         1 3JW       0.425200
     21 CAM         -0.7600    -0.0000    -1.2710 cd         1 3JW      -0.362800
     22 C2           0.0440    -0.0010     2.3070 ca         1 3JW       0.642900
     23 CAR          2.4400     0.0000    -1.0300 cc         1 3JW      -0.144200
     24 CAS          3.6230     0.0000    -0.3920 cd         1 3JW      -0.293100
     25 NAT          3.4210     0.0000     0.9630 na         1 3JW       0.294900
     26 H1          -2.1270     3.6490    -3.7580 hc         1 3JW       0.027700
     27 H2          -3.8790     4.0380    -4.4060 hc         1 3JW       0.027700
     28 H3          -2.9770     4.9080    -3.3760 hc         1 3JW       0.027700
     29 H4          -4.4780     3.7500    -1.7410 h1         1 3JW       0.059200
     30 H5          -3.6670     2.4060    -1.9310 h1         1 3JW       0.059200
     31 H6          -4.3450    -0.3400    -1.7900 h1         1 3JW       0.063950
     32 H7          -5.9010    -0.4430    -2.6680 h1         1 3JW       0.063950
     33 H8          -4.6400     0.4390    -5.3710 h1         1 3JW       0.063950
     34 H9          -2.9800     0.2930    -4.6630 h1         1 3JW       0.063950
     35 H10         -3.5630    -3.0510    -2.9910 hc         1 3JW       0.067200
     36 H11         -4.1030    -2.1680    -4.6520 hc         1 3JW       0.067200
     37 H12         -2.6190    -1.1070    -0.7950 h4         1 3JW       0.158000
     38 H13          0.4970     1.2090    -2.7440 h4         1 3JW       0.012100
     39 H14         -0.4110    -0.0740     3.2880 h5         1 3JW      -0.000900
     40 H15          2.4710     0.5070    -1.9870 ha         1 3JW       0.132000
     41 H16          4.4870     0.1140    -1.0360 h4         1 3JW       0.157000
     42 H17          4.1250    -0.1110     1.6660 hn         1 3JW       0.117700
     43 SAC         -5.3540     2.3280    -3.3920 s6         1 3JW       0.975900
@<TRIPOS>BOND
     1     1     2 ar  
     2     1     5 ar  
     3     1    21 1   
     4     2     3 ar  
     5     2    23 1   
     6     3     4 ar  
     7     3    25 1   
     8     4    22 ar  
     9     5    22 ar  
    10     6     7 1   
    11     6    26 1   
    12     6    27 1   
    13     6    28 1   
    14     7    29 1   
    15     7    30 1   
    16     7    43 1   
    17     8    43 2   
    18     9    43 2   
    19    10    11 1   
    20    10    12 1   
    21    10    43 1   
    22    11    13 1   
    23    11    31 1   
    24    11    32 1   
    25    12    13 1   
    26    12    33 1   
    27    12    34 1   
    28    13    14 1   
    29    13    17 1   
    30    14    15 1   
    31    14    35 1   
    32    14    36 1   
    33    15    16 3   
    34    17    18 1   
    35    17    19 1   
    36    18    21 2   
    37    18    37 1   
    38    19    20 2   
    39    20    21 1   
    40    20    38 1   
    41    22    39 1   
    42    23    24 2   
    43    23    40 1   
    44    24    25 1   
    45    24    41 1   
    46    25    42 1   
@<TRIPOS>SUBSTRUCTURE
     1 3JW         1 TEMP              0 ****  ****    0 ROOT
