@<TRIPOS>MOLECULE
3JX
   69    73     1     0     0
SMALL
bcc


@<TRIPOS>ATOM
      1 C01          0.0000     0.0000     0.0000 ca         1 3JX      -0.220600
      2 C02          1.4020     0.0000     0.0000 ca         1 3JX      -0.085000
      3 C03          2.0980     0.0000     1.1720 ca         1 3JX      -0.101000
      4 C04          1.4200    -0.0010     2.3900 ca         1 3JX      -0.185200
      5 C05          0.0110    -0.0010     2.4030 ca         1 3JX      -0.120800
      6 C06         -0.6970    -0.0010     1.2040 ca         1 3JX       0.039000
      7 N07          1.8360    -0.0010     3.6990 na         1 3JX       0.438600
      8 C08          0.7530    -0.0020     4.5350 cc         1 3JX      -0.227300
      9 C09         -0.3810    -0.0020     3.8160 cd         1 3JX      -0.157400
     10 C10         -1.7870    -0.0020     4.3580 c3         1 3JX       0.105100
     11 C11          0.8220    -0.0020     6.0410 c3         1 3JX       0.085100
     12 C12          3.2350    -0.0020     4.1360 c3         1 3JX       0.011600
     13 C13          3.7150     1.4190     4.2870 ca         1 3JX      -0.156300
     14 C14         -0.7380     0.0050    -1.2790 c          1 3JX       0.621700
     15 O15         -1.9530     0.0040    -1.2790 o          1 3JX      -0.666100
     16 N16         -0.0640     0.0110    -2.4460 ns         1 3JX      -0.224900
     17 C17         -0.7960     0.0170    -3.7150 c3         1 3JX       0.070000
     18 C18          0.0690    -0.5780    -4.7960 ca         1 3JX      -0.035300
     19 C19         -1.1600     1.4550    -4.0870 c3         1 3JX      -0.013100
     20 C20          4.2870     2.0700     3.2090 ca         1 3JX      -0.106500
     21 C21          4.7280     3.3720     3.3410 ca         1 3JX      -0.049500
     22 C22          4.5960     4.0290     4.5630 cp         1 3JX       0.040000
     23 C23          4.0190     3.3670     5.6460 ca         1 3JX      -0.049500
     24 C24          3.5760     2.0680     5.5000 ca         1 3JX      -0.106500
     25 C25          5.0680     5.4260     4.7120 cp         1 3JX      -0.032000
     26 C26          4.5570     6.4280     3.8930 ca         1 3JX      -0.125000
     27 C27          5.0000     7.7290     4.0330 ca         1 3JX      -0.133000
     28 C28          5.9520     8.0460     4.9870 ca         1 3JX      -0.138000
     29 C29          6.4710     7.0670     5.8090 ca         1 3JX      -0.064000
     30 C30          6.0310     5.7480     5.6840 ca         1 3JX      -0.090600
     31 C31          1.4210    -0.2890    -4.8380 ca         1 3JX      -0.116500
     32 C32          2.2140    -0.8340    -5.8300 ca         1 3JX      -0.005500
     33 C33          1.6550    -1.6690    -6.7810 ca         1 3JX      -0.457200
     34 C34          0.3050    -1.9590    -6.7390 ca         1 3JX      -0.005500
     35 C35         -0.4870    -1.4180    -5.7430 ca         1 3JX      -0.116500
     36 N36          2.5050    -2.2530    -7.8430 no         1 3JX       1.050200
     37 O37          2.0140    -2.9880    -8.6800 o          1 3JX      -0.453000
     38 O38          3.6950    -1.9960    -7.8810 o          1 3JX      -0.453000
     39 C39          6.5790     4.6980     6.5640 c          1 3JX       0.969200
     40 O40          6.2840     3.5340     6.3760 o          1 3JX      -0.878300
     41 O41          7.4050     5.0290     7.5760 o          1 3JX      -0.878300
     42 H1           1.9380     0.0010    -0.9410 ha         1 3JX       0.089000
     43 H2           3.1810    -0.0000     1.1570 ha         1 3JX       0.109000
     44 H3          -1.7800    -0.0010     1.2090 ha         1 3JX       0.120000
     45 H4          -2.4820     0.2170     3.5570 hc         1 3JX      -0.000300
     46 H5          -2.0130    -0.9760     4.7750 hc         1 3JX      -0.000300
     47 H6          -1.8760     0.7510     5.1310 hc         1 3JX      -0.000300
     48 H7           1.7580    -0.4450     6.3590 hc         1 3JX       0.013700
     49 H8          -0.0040    -0.5780     6.4400 hc         1 3JX       0.013700
     50 H9           0.7610     1.0160     6.4050 hc         1 3JX       0.013700
     51 H10          3.8430    -0.5120     3.3990 h1         1 3JX       0.034700
     52 H11          3.3160    -0.5130     5.0880 h1         1 3JX       0.034700
     53 H12          0.9370     0.0040    -2.4460 hn         1 3JX       0.190500
     54 H13         -1.7010    -0.5700    -3.6120 h1         1 3JX       0.062700
     55 H14         -0.7290     1.6980    -5.0510 hc         1 3JX       0.014700
     56 H15         -2.2370     1.5530    -4.1380 hc         1 3JX       0.014700
     57 H16         -0.7700     2.1320    -3.3370 hc         1 3JX       0.014700
     58 H17          4.3890     1.5580     2.2600 ha         1 3JX       0.091000
     59 H18          5.1760     3.8810     2.4960 ha         1 3JX       0.109000
     60 H19          3.9120     3.8730     6.5980 ha         1 3JX       0.109000
     61 H20          3.1280     1.5520     6.3410 ha         1 3JX       0.091000
     62 H21          3.8120     6.1880     3.1440 ha         1 3JX       0.092000
     63 H22          4.6000     8.5060     3.3940 ha         1 3JX       0.083000
     64 H23          6.2930     9.0690     5.0870 ha         1 3JX       0.085000
     65 H24          7.2140     7.3220     6.5550 ha         1 3JX       0.130000
     66 H25          1.8580     0.3650    -4.0930 ha         1 3JX       0.122000
     67 H26          3.2730    -0.6070    -5.8640 ha         1 3JX       0.132000
     68 H27         -0.1310    -2.6150    -7.4820 ha         1 3JX       0.132000
     69 H28         -1.5460    -1.6450    -5.7100 ha         1 3JX       0.122000
@<TRIPOS>BOND
     1     1     2 ar  
     2     1     6 ar  
     3     1    14 1   
     4     2     3 ar  
     5     2    42 1   
     6     3     4 ar  
     7     3    43 1   
     8     4     5 ar  
     9     4     7 1   
    10     5     6 ar  
    11     5     9 1   
    12     6    44 1   
    13     7     8 1   
    14     7    12 1   
    15     8     9 2   
    16     8    11 1   
    17     9    10 1   
    18    10    45 1   
    19    10    46 1   
    20    10    47 1   
    21    11    48 1   
    22    11    49 1   
    23    11    50 1   
    24    12    13 1   
    25    12    51 1   
    26    12    52 1   
    27    13    20 ar  
    28    13    24 ar  
    29    14    15 2   
    30    14    16 1   
    31    16    17 1   
    32    16    53 1   
    33    17    18 1   
    34    17    19 1   
    35    17    54 1   
    36    18    31 ar  
    37    18    35 ar  
    38    19    55 1   
    39    19    56 1   
    40    19    57 1   
    41    20    21 ar  
    42    20    58 1   
    43    21    22 ar  
    44    21    59 1   
    45    22    23 ar  
    46    22    25 1   
    47    23    24 ar  
    48    23    60 1   
    49    24    61 1   
    50    25    26 ar  
    51    25    30 ar  
    52    26    27 ar  
    53    26    62 1   
    54    27    28 ar  
    55    27    63 1   
    56    28    29 ar  
    57    28    64 1   
    58    29    30 ar  
    59    29    65 1   
    60    30    39 1   
    61    31    32 ar  
    62    31    66 1   
    63    32    33 ar  
    64    32    67 1   
    65    33    34 ar  
    66    33    36 1   
    67    34    35 ar  
    68    34    68 1   
    69    35    69 1   
    70    36    37 1   
    71    36    38 1   
    72    39    40 1   
    73    39    41 1   
@<TRIPOS>SUBSTRUCTURE
     1 3JX         1 TEMP              0 ****  ****    0 ROOT
