@<TRIPOS>MOLECULE
molecule
   69    73     1     0     0
SMALL
bcc


@<TRIPOS>ATOM
      1 C01          0.0000     0.0000     0.0000 ca         1 3JX      -0.202600
      2 C02          1.4020     0.0000     0.0000 ca         1 3JX      -0.101000
      3 C03          2.0980     0.0000     1.1720 ca         1 3JX      -0.138000
      4 C04          1.4200    -0.0010     2.3900 ca         1 3JX      -0.006200
      5 C05          0.0110    -0.0010     2.4030 ca         1 3JX      -0.115800
      6 C06         -0.6970    -0.0010     1.2040 ca         1 3JX      -0.007000
      7 N07          1.8360    -0.0010     3.6990 na         1 3JX      -0.044400
      8 C08          0.7530    -0.0020     4.5350 cc         1 3JX      -0.036300
      9 C09         -0.3810    -0.0020     3.8160 cd         1 3JX      -0.161400
     10 C10         -1.7870    -0.0020     4.3580 c3         1 3JX      -0.010900
     11 C11          0.8220    -0.0020     6.0410 c3         1 3JX      -0.031900
     12 C12          3.2350    -0.0020     4.1360 c3         1 3JX       0.095600
     13 C13          3.7150     1.4190     4.2870 ca         1 3JX      -0.139300
     14 C14         -0.7380     0.0050    -1.2790 c          1 3JX       0.688700
     15 O15         -1.9530     0.0040    -1.2790 o          1 3JX      -0.625100
     16 N16         -0.0640     0.0110    -2.4460 ns         1 3JX      -0.591900
     17 C17         -0.7960     0.0170    -3.7150 c3         1 3JX       0.157000
     18 C18          0.0690    -0.5780    -4.7960 ca         1 3JX      -0.045300
     19 C19         -1.1600     1.4550    -4.0870 c3         1 3JX      -0.105100
     20 C20          4.2870     2.0700     3.2090 ca         1 3JX      -0.127500
     21 C21          4.7280     3.3720     3.3410 ca         1 3JX      -0.074000
     22 C22          4.5960     4.0290     4.5630 cp         1 3JX       0.030000
     23 C23          4.0190     3.3670     5.6460 ca         1 3JX      -0.074000
     24 C24          3.5760     2.0680     5.5000 ca         1 3JX      -0.127500
     25 C25          5.0680     5.4260     4.7120 cp         1 3JX      -0.039000
     26 C26          4.5570     6.4280     3.8930 ca         1 3JX      -0.142000
     27 C27          5.0000     7.7290     4.0330 ca         1 3JX      -0.155000
     28 C28          5.9520     8.0460     4.9870 ca         1 3JX      -0.157000
     29 C29          6.4710     7.0670     5.8090 ca         1 3JX      -0.094000
     30 C30          6.0310     5.7480     5.6840 ca         1 3JX      -0.089600
     31 C31          1.4210    -0.2890    -4.8380 ca         1 3JX      -0.131500
     32 C32          2.2140    -0.8340    -5.8300 ca         1 3JX      -0.067000
     33 C33          1.6550    -1.6690    -6.7810 ca         1 3JX      -0.161200
     34 C34          0.3050    -1.9590    -6.7390 ca         1 3JX      -0.067000
     35 C35         -0.4870    -1.4180    -5.7430 ca         1 3JX      -0.131500
     36 N36          2.5050    -2.2530    -7.8430 no         1 3JX       0.295200
     37 O37          2.0140    -2.9880    -8.6800 o          1 3JX      -0.209000
     38 O38          3.6950    -1.9960    -7.8810 o          1 3JX      -0.209000
     39 C39          6.5790     4.6980     6.5640 c          1 3JX       0.877200
     40 O40          6.2840     3.5340     6.3760 o          1 3JX      -0.829300
     41 O41          7.4050     5.0290     7.5760 o          1 3JX      -0.829300
     42 H1           1.9380     0.0010    -0.9410 ha         1 3JX       0.112000
     43 H2           3.1810    -0.0000     1.1570 ha         1 3JX       0.133000
     44 H3          -1.7800    -0.0010     1.2090 ha         1 3JX       0.150000
     45 H4          -2.4820     0.2170     3.5570 hc         1 3JX       0.035700
     46 H5          -2.0130    -0.9760     4.7750 hc         1 3JX       0.035700
     47 H6          -1.8760     0.7510     5.1310 hc         1 3JX       0.035700
     48 H7           1.7580    -0.4450     6.3590 hc         1 3JX       0.051700
     49 H8          -0.0040    -0.5780     6.4400 hc         1 3JX       0.051700
     50 H9           0.7610     1.0160     6.4050 hc         1 3JX       0.051700
     51 H10          3.8430    -0.5120     3.3990 h1         1 3JX       0.061200
     52 H11          3.3160    -0.5130     5.0880 h1         1 3JX       0.061200
     53 H12          0.9370     0.0040    -2.4460 hn         1 3JX       0.318500
     54 H13         -1.7010    -0.5700    -3.6120 h1         1 3JX       0.088700
     55 H14         -0.7290     1.6980    -5.0510 hc         1 3JX       0.048033
     56 H15         -2.2370     1.5530    -4.1380 hc         1 3JX       0.048033
     57 H16         -0.7700     2.1320    -3.3370 hc         1 3JX       0.048033
     58 H17          4.3890     1.5580     2.2600 ha         1 3JX       0.109500
     59 H18          5.1760     3.8810     2.4960 ha         1 3JX       0.135000
     60 H19          3.9120     3.8730     6.5980 ha         1 3JX       0.135000
     61 H20          3.1280     1.5520     6.3410 ha         1 3JX       0.109500
     62 H21          3.8120     6.1880     3.1440 ha         1 3JX       0.113000
     63 H22          4.6000     8.5060     3.3940 ha         1 3JX       0.104000
     64 H23          6.2930     9.0690     5.0870 ha         1 3JX       0.107000
     65 H24          7.2140     7.3220     6.5550 ha         1 3JX       0.156000
     66 H25          1.8580     0.3650    -4.0930 ha         1 3JX       0.151000
     67 H26          3.2730    -0.6070    -5.8640 ha         1 3JX       0.165500
     68 H27         -0.1310    -2.6150    -7.4820 ha         1 3JX       0.165500
     69 H28         -1.5460    -1.6450    -5.7100 ha         1 3JX       0.151000
@<TRIPOS>BOND
     1    32    31 ar
     2    32    33 ar
     3    31    18 ar
     4    19    17 1
     5    37    36 1
     6    36    33 1
     7    36    38 1
     8    33    34 ar
     9    18    17 1
    10    18    35 ar
    11    17    16 1
    12    16    14 1
    13    34    35 ar
    14    14    15 2
    15    14     1 1
    16     6     1 ar
    17     6     5 ar
    18     1     2 ar
    19    10     9 1
    20     5     9 1
    21     5     4 ar
    22     2     3 ar
    23     9     8 2
    24     4     3 ar
    25     4     7 1
    26     8     7 1
    27     8    11 1
    28     7    12 1
    29    20    21 ar
    30    20    13 ar
    31    12    13 1
    32    21    22 ar
    33    13    24 ar
    34    40    39 1
    35    22    25 1
    36    22    23 ar
    37    24    23 ar
    38    25    26 ar
    39    25    30 ar
    40    39    30 1
    41    39    41 1
    42    26    27 ar
    43    30    29 ar
    44    27    28 ar
    45    29    28 ar
    46     2    42 1
    47     3    43 1
    48     6    44 1
    49    10    45 1
    50    10    46 1
    51    10    47 1
    52    11    48 1
    53    11    49 1
    54    11    50 1
    55    12    51 1
    56    12    52 1
    57    16    53 1
    58    17    54 1
    59    19    55 1
    60    19    56 1
    61    19    57 1
    62    20    58 1
    63    21    59 1
    64    23    60 1
    65    24    61 1
    66    26    62 1
    67    27    63 1
    68    28    64 1
    69    29    65 1
    70    31    66 1
    71    32    67 1
    72    34    68 1
    73    35    69 1
@<TRIPOS>SUBSTRUCTURE
     1 3JX         1 TEMP              0 ****  ****    0 ROOT
