@<TRIPOS>MOLECULE
molecule
   41    42     1     0     0
SMALL
bcc


@<TRIPOS>ATOM
      1 N21          0.0000     0.0000     0.0000 ns         1 3JY      -0.566500
      2 N6          -0.0300     0.0120     2.3420 n          1 3JY      -0.341000
      3 C2           1.3480     0.0000     0.0000 c          1 3JY       0.718700
      4 C22         -0.6780     0.0060     1.1630 c          1 3JY       0.793500
      5 C7          -0.7950     0.0180     3.5910 c3         1 3JY       0.094700
      6 C20         -1.7660     1.2240     3.6250 c3         1 3JY      -0.135400
      7 C10         -2.8540     0.7590     4.6250 c3         1 3JY       0.181100
      8 C12         -4.3270     2.5120     5.3320 c3         1 3JY      -0.037100
      9 C13         -5.1020     3.6140     4.6550 c          1 3JY       0.674100
     10 C9          -3.0300    -0.7430     4.3210 c3         1 3JY      -0.069400
     11 C8          -1.7210    -1.2140     3.6630 c3         1 3JY      -0.098400
     12 C5           1.3380     0.0000     2.3840 cc         1 3JY       0.062600
     13 C3           2.0430     0.0000     1.2330 cd         1 3JY      -0.332400
     14 C4           3.5500    -0.0130     1.2610 c3         1 3JY      -0.001900
     15 O1           1.9620    -0.0010    -1.0520 o          1 3JY      -0.668500
     16 O11         -4.0760     1.4610     4.3960 os         1 3JY      -0.366600
     17 O14         -5.0290     3.7550     3.4570 o          1 3JY      -0.632000
     18 O15         -5.8720     4.4370     5.3820 os         1 3JY      -0.360900
     19 O23         -1.8940     0.0060     1.1470 o          1 3JY      -0.610500
     20 P16         -5.2950     1.8610     6.7330 p5         1 3JY       1.004700
     21 H1          -0.4990    -0.0030    -0.8680 hn         1 3JY       0.353500
     22 H2          -0.1330     0.0430     4.4480 h1         1 3JY       0.063700
     23 H3          -1.2620     2.1100     3.9930 hc         1 3JY       0.063200
     24 H4          -2.1960     1.3970     2.6460 hc         1 3JY       0.063200
     25 H5          -2.5140     0.8990     5.6440 h1         1 3JY       0.075700
     26 H6          -3.3850     2.9040     5.6950 h1         1 3JY       0.044700
     27 H7          -3.1980    -1.2890     5.2410 hc         1 3JY       0.077700
     28 H8          -3.8590    -0.8880     3.6400 hc         1 3JY       0.077700
     29 H9          -1.9210    -1.5850     2.6650 hc         1 3JY       0.036200
     30 H10         -1.2610    -1.9870     4.2670 hc         1 3JY       0.036200
     31 H11          1.8520     0.0030     3.3380 h4         1 3JY       0.160000
     32 H12          3.9110    -0.9490     0.8520 hc         1 3JY       0.034700
     33 H13          3.8930     0.0900     2.2830 hc         1 3JY       0.034700
     34 H14          3.9290     0.8100     0.6680 hc         1 3JY       0.034700
     35 C1          -6.5900     5.4750     4.6640 c3         1 3JY       0.145700
     36 H17         -7.1820     6.0550     5.3620 h1         1 3JY       0.019367
     37 H18         -7.2420     5.0200     3.9280 h1         1 3JY       0.019367
     38 H19         -5.8810     6.1250     4.1650 h1         1 3JY       0.019367
     39 O18         -6.7080     1.7010     6.3230 o          1 3JY      -0.888833
     40 O19         -4.7000     0.4330     7.1780 o          1 3JY      -0.888833
     41 O17         -5.2070     2.8880     7.9690 o          1 3JY      -0.888833
@<TRIPOS>BOND
     1    39    20 1   
     2    40    20 1   
     3    20    41 1   
     4    20     8 1   
     5     6     7 1   
     6     6     5 1   
     7    16     7 1   
     8    16     8 1   
     9     7    10 1   
    10     8     9 1   
    11     5     2 1   
    12     5    11 1   
    13    17     9 2   
    14    19     4 2   
    15     9    18 1   
    16     2     4 1   
    17     2    12 1   
    18     4     1 1   
    19    10    11 1   
    20    12    13 2   
    21     1     3 1   
    22    13     3 1   
    23    13    14 1   
    24     3    15 2   
    25     1    21 1   
    26     5    22 1   
    27     6    23 1   
    28     6    24 1   
    29     7    25 1   
    30     8    26 1   
    31    10    27 1   
    32    10    28 1   
    33    11    29 1   
    34    11    30 1   
    35    12    31 1   
    36    14    32 1   
    37    14    33 1   
    38    14    34 1   
    39    18    35 1   
    40    35    36 1   
    41    35    37 1   
    42    35    38 1   
@<TRIPOS>SUBSTRUCTURE
     1 3JY         1 TEMP              0 ****  ****    0 ROOT
