@<TRIPOS>MOLECULE
3JY
   41    42     1     0     0
SMALL
bcc


@<TRIPOS>ATOM
      1 N21          0.0000     0.0000     0.0000 ns         1 3JY      -0.138500
      2 N6          -0.0300     0.0120     2.3420 n          1 3JY       0.082000
      3 C2           1.3480     0.0000     0.0000 c          1 3JY       0.634700
      4 C22         -0.6780     0.0060     1.1630 c          1 3JY       0.569500
      5 C7          -0.7950     0.0180     3.5910 c3         1 3JY      -0.005300
      6 C20         -1.7660     1.2240     3.6250 c3         1 3JY      -0.103400
      7 C10         -2.8540     0.7590     4.6250 c3         1 3JY       0.207100
      8 C12         -4.3270     2.5120     5.3320 c3         1 3JY       0.110900
      9 C13         -5.1020     3.6140     4.6550 c          1 3JY       0.746100
     10 C9          -3.0300    -0.7430     4.3210 c3         1 3JY      -0.025400
     11 C8          -1.7210    -1.2140     3.6630 c3         1 3JY      -0.046400
     12 C5           1.3380     0.0000     2.3840 cc         1 3JY      -0.066400
     13 C3           2.0430     0.0000     1.2330 cd         1 3JY      -0.345400
     14 C4           3.5500    -0.0130     1.2610 c3         1 3JY       0.116100
     15 O1           1.9620    -0.0010    -1.0520 o          1 3JY      -0.712500
     16 O11         -4.0760     1.4610     4.3960 os         1 3JY      -0.342600
     17 O14         -5.0290     3.7550     3.4570 o          1 3JY      -0.710000
     18 O15         -5.8720     4.4370     5.3820 os         1 3JY      -0.332900
     19 O23         -1.8940     0.0060     1.1470 o          1 3JY      -0.649500
     20 P16         -5.2950     1.8610     6.7330 p5         1 3JY       0.422700
     21 H1          -0.4990    -0.0030    -0.8680 hn         1 3JY       0.197500
     22 H2          -0.1330     0.0430     4.4480 h1         1 3JY       0.037700
     23 H3          -1.2620     2.1100     3.9930 hc         1 3JY       0.037700
     24 H4          -2.1960     1.3970     2.6460 hc         1 3JY       0.037700
     25 H5          -2.5140     0.8990     5.6440 h1         1 3JY       0.049700
     26 H6          -3.3850     2.9040     5.6950 h1         1 3JY       0.009700
     27 H7          -3.1980    -1.2890     5.2410 hc         1 3JY       0.043200
     28 H8          -3.8590    -0.8880     3.6400 hc         1 3JY       0.043200
     29 H9          -1.9210    -1.5850     2.6650 hc         1 3JY       0.008200
     30 H10         -1.2610    -1.9870     4.2670 hc         1 3JY       0.008200
     31 H11          1.8520     0.0030     3.3380 h4         1 3JY       0.131000
     32 H12          3.9110    -0.9490     0.8520 hc         1 3JY      -0.001300
     33 H13          3.8930     0.0900     2.2830 hc         1 3JY      -0.001300
     34 H14          3.9290     0.8100     0.6680 hc         1 3JY      -0.001300
     35 C1          -6.5900     5.4750     4.6640 c3         1 3JY       0.254700
     36 H17         -7.1820     6.0550     5.3620 h1         1 3JY      -0.027300
     37 H18         -7.2420     5.0200     3.9280 h1         1 3JY      -0.027300
     38 H19         -5.8810     6.1250     4.1650 h1         1 3JY      -0.027300
     39 O18         -6.7080     1.7010     6.3230 o          1 3JY      -0.727167
     40 O19         -4.7000     0.4330     7.1780 o          1 3JY      -0.727167
     41 O17         -5.2070     2.8880     7.9690 o          1 3JY      -0.727167
@<TRIPOS>BOND
     1     1     3 1   
     2     1     4 1   
     3     1    21 1   
     4     2     4 1   
     5     2     5 1   
     6     2    12 1   
     7     3    13 1   
     8     3    15 2   
     9     4    19 2   
    10     5     6 1   
    11     5    11 1   
    12     5    22 1   
    13     6     7 1   
    14     6    23 1   
    15     6    24 1   
    16     7    10 1   
    17     7    16 1   
    18     7    25 1   
    19     8     9 1   
    20     8    16 1   
    21     8    20 1   
    22     8    26 1   
    23     9    17 2   
    24     9    18 1   
    25    10    11 1   
    26    10    27 1   
    27    10    28 1   
    28    11    29 1   
    29    11    30 1   
    30    12    13 2   
    31    12    31 1   
    32    13    14 1   
    33    14    32 1   
    34    14    33 1   
    35    14    34 1   
    36    18    35 1   
    37    20    39 1   
    38    20    40 1   
    39    20    41 1   
    40    35    36 1   
    41    35    37 1   
    42    35    38 1   
@<TRIPOS>SUBSTRUCTURE
     1 3JY         1 TEMP              0 ****  ****    0 ROOT
