@<TRIPOS>MOLECULE
molecule
   56    59     1     0     0
SMALL
bcc


@<TRIPOS>ATOM
      1 C35          0.0000     0.0000     0.0000 c3         1 3JZ       0.222100
      2 C34          2.3350     1.7450    -1.9310 c3         1 3JZ      -0.248300
      3 N2           2.8440    -6.0700    -2.3080 nb         1 3JZ      -0.832000
      4 C7           3.9470    -5.3490    -2.4350 ca         1 3JZ       0.569200
      5 C6           4.1320    -4.2450    -1.6250 ca         1 3JZ      -0.551900
      6 C13          2.5590    -1.2010     1.7850 ca         1 3JZ      -0.100300
      7 C20          2.1620     0.0000     1.2100 ca         1 3JZ       0.155600
      8 C21          0.1200    -9.6380    -4.0270 ca         1 3JZ       0.033600
      9 C8           5.3740    -3.4020    -1.7420 c3         1 3JZ       0.687200
     10 C18          3.5450    -0.0010     3.6080 ca         1 3JZ      -0.123000
     11 C16         -0.0610    -8.7390    -1.8060 ca         1 3JZ      -0.130000
     12 C19          3.1520     1.1960     3.0380 ca         1 3JZ      -0.113000
     13 O33          1.4690    -0.7490    -2.3150 o          1 3JZ      -0.619800
     14 S31          2.2930     0.0010    -1.4330 s6         1 3JZ       1.330900
     15 O32          3.5960    -0.4500    -1.0860 o          1 3JZ      -0.619800
     16 N30          1.4650     0.0000     0.0000 nh         1 3JZ      -0.697900
     17 C17          3.2490    -1.1980     2.9820 ca         1 3JZ      -0.104000
     18 C1           2.4620     1.2000     1.8420 ca         1 3JZ      -0.136000
     19 N10          3.2790    -2.8290     0.1360 nu         1 3JZ      -0.890900
     20 C5           3.1380    -3.9280    -0.6970 ca         1 3JZ       0.806200
     21 F29          6.2030    -3.9280    -2.7390 f          1 3JZ      -0.222967
     22 F28          5.0190    -2.0910    -2.0760 f          1 3JZ      -0.222967
     23 F27          6.0560    -3.4030    -0.5210 f          1 3JZ      -0.222967
     24 N4           2.0550    -4.6950    -0.6220 nb         1 3JZ      -0.868000
     25 C3           1.9180    -5.7460    -1.4170 ca         1 3JZ       0.990900
     26 N9           0.7770    -6.5250    -1.3150 nu         1 3JZ      -0.748300
     27 C11          0.5570    -7.5670    -2.2230 ca         1 3JZ       0.136600
     28 C14          0.9560    -7.4340    -3.5480 ca         1 3JZ      -0.071000
     29 C22          0.7380    -8.4620    -4.4360 ca         1 3JZ      -0.129300
     30 C23          1.0430    -8.6320    -5.9070 c3         1 3JZ      -0.120100
     31 C15         -0.2790    -9.7660    -2.6980 ca         1 3JZ      -0.139000
     32 N25          0.0170   -10.5270    -5.1010 ns         1 3JZ      -0.461100
     33 C24          0.5260   -10.0160    -6.2340 c          1 3JZ       0.709500
     34 O26          0.5660   -10.5630    -7.3160 o          1 3JZ      -0.610500
     35 H35         -0.3610    -0.7200    -0.7240 h1         1 3JZ       0.048700
     36 H35A        -0.3610    -0.2670     0.9860 h1         1 3JZ       0.048700
     37 H35B        -0.3610     0.9870    -0.2620 h1         1 3JZ       0.048700
     38 H34          2.5630     1.8140    -2.9880 h1         1 3JZ       0.097700
     39 H34A         1.3700     2.1980    -1.7390 h1         1 3JZ       0.097700
     40 H34B         3.0970     2.2640    -1.3630 h1         1 3JZ       0.097700
     41 H7           4.6980    -5.6220    -3.1660 h4         1 3JZ       0.044100
     42 H18          4.0860    -0.0010     4.5460 ha         1 3JZ       0.137000
     43 H16         -0.3730    -8.8450    -0.7740 ha         1 3JZ       0.136000
     44 H19          3.3860     2.1320     3.5300 ha         1 3JZ       0.136000
     45 H17          3.5580    -2.1350     3.4300 ha         1 3JZ       0.141000
     46 H1           2.1550     2.1390     1.3970 ha         1 3JZ       0.134000
     47 H12          2.1720    -3.2940     1.8490 h1         1 3JZ       0.060200
     48 H12A         1.2790    -2.4200     0.5970 h1         1 3JZ       0.060200
     49 HN10         4.1200    -2.2870     0.1100 hn         1 3JZ       0.484800
     50 HN9          0.1010    -6.3320    -0.6020 hn         1 3JZ       0.467800
     51 H14          1.4390    -6.5230    -3.8800 ha         1 3JZ       0.164000
     52 H23          0.5190    -7.8850    -6.4900 hc         1 3JZ       0.092200
     53 H23A         2.1110    -8.5770    -6.0800 hc         1 3JZ       0.092200
     54 H15         -0.7610   -10.6770    -2.3650 ha         1 3JZ       0.134000
     55 HN25        -0.3940   -11.4370    -5.0340 hn         1 3JZ       0.335500
     56 C12          2.2310    -2.5070     1.1070 c3         1 3JZ       0.284100
@<TRIPOS>BOND
     1     1    16 1
     2     2    14 1
     3     3     4 ar
     4     3    25 ar
     5     4     5 ar
     6     5     9 1
     7     5    20 ar
     8     6     7 ar
     9     6    17 ar
    10     6    56 1
    11     7    16 1
    12     7    18 ar
    13     8    29 ar
    14     8    31 ar
    15     8    32 1
    16     9    21 1
    17     9    22 1
    18     9    23 1
    19    10    12 ar
    20    10    17 ar
    21    11    27 ar
    22    11    31 ar
    23    12    18 ar
    24    13    14 2
    25    14    15 2
    26    14    16 1
    27    56    19 1
    28    19    20 1
    29    20    24 ar
    30    24    25 ar
    31    25    26 1
    32    26    27 1
    33    27    28 ar
    34    28    29 ar
    35    29    30 1
    36    30    33 1
    37    32    33 1
    38    33    34 2
    39     1    35 1
    40     1    36 1
    41     1    37 1
    42     2    38 1
    43     2    39 1
    44     2    40 1
    45     4    41 1
    46    10    42 1
    47    11    43 1
    48    12    44 1
    49    17    45 1
    50    18    46 1
    51    56    47 1
    52    56    48 1
    53    19    49 1
    54    26    50 1
    55    28    51 1
    56    30    52 1
    57    30    53 1
    58    31    54 1
    59    32    55 1
@<TRIPOS>SUBSTRUCTURE
     1 3JZ         1 TEMP              0 ****  ****    0 ROOT
