@<TRIPOS>MOLECULE
3JZ
   56    59     1     0     0
SMALL
bcc


@<TRIPOS>ATOM
      1 C35          0.0000     0.0000     0.0000 c3         1 3JZ       0.262100
      2 C34          2.3350     1.7450    -1.9310 c3         1 3JZ       0.015700
      3 N2           2.8440    -6.0700    -2.3080 nb         1 3JZ      -0.751000
      4 C7           3.9470    -5.3490    -2.4350 ca         1 3JZ       0.582200
      5 C6           4.1320    -4.2450    -1.6250 ca         1 3JZ      -0.594900
      6 C13          2.5590    -1.2010     1.7850 ca         1 3JZ      -0.108300
      7 C20          2.1620     0.0000     1.2100 ca         1 3JZ       0.097600
      8 C21          0.1200    -9.6380    -4.0270 ca         1 3JZ      -0.120400
      9 C8           5.3740    -3.4020    -1.7420 c3         1 3JZ       0.669200
     10 C18          3.5450    -0.0010     3.6080 ca         1 3JZ      -0.097000
     11 C16         -0.0610    -8.7390    -1.8060 ca         1 3JZ      -0.104000
     12 C19          3.1520     1.1960     3.0380 ca         1 3JZ      -0.083000
     13 O33          1.4690    -0.7490    -2.3150 o          1 3JZ      -0.578800
     14 S31          2.2930     0.0010    -1.4330 s6         1 3JZ       0.957900
     15 O32          3.5960    -0.4500    -1.0860 o          1 3JZ      -0.578800
     16 N30          1.4650     0.0000     0.0000 nh         1 3JZ      -0.402900
     17 C17          3.2490    -1.1980     2.9820 ca         1 3JZ      -0.074000
     18 C1           2.4620     1.2000     1.8420 ca         1 3JZ      -0.116000
     19 N10          3.2790    -2.8290     0.1360 nu         1 3JZ      -0.483900
     20 C5           3.1380    -3.9280    -0.6970 ca         1 3JZ       0.641200
     21 F29          6.2030    -3.9280    -2.7390 f          1 3JZ      -0.209633
     22 F28          5.0190    -2.0910    -2.0760 f          1 3JZ      -0.209633
     23 F27          6.0560    -3.4030    -0.5210 f          1 3JZ      -0.209633
     24 N4           2.0550    -4.6950    -0.6220 nb         1 3JZ      -0.777000
     25 C3           1.9180    -5.7460    -1.4170 ca         1 3JZ       0.764900
     26 N9           0.7770    -6.5250    -1.3150 nu         1 3JZ      -0.276300
     27 C11          0.5570    -7.5670    -2.2230 ca         1 3JZ      -0.021400
     28 C14          0.9560    -7.4340    -3.5480 ca         1 3JZ      -0.043000
     29 C22          0.7380    -8.4620    -4.4360 ca         1 3JZ      -0.129300
     30 C23          1.0430    -8.6320    -5.9070 c3         1 3JZ      -0.047100
     31 C15         -0.2790    -9.7660    -2.6980 ca         1 3JZ      -0.099000
     32 N25          0.0170   -10.5270    -5.1010 ns         1 3JZ      -0.008100
     33 C24          0.5260   -10.0160    -6.2340 c          1 3JZ       0.608500
     34 O26          0.5660   -10.5630    -7.3160 o          1 3JZ      -0.655500
     35 H35         -0.3610    -0.7200    -0.7240 h1         1 3JZ       0.008367
     36 H35A        -0.3610    -0.2670     0.9860 h1         1 3JZ       0.008367
     37 H35B        -0.3610     0.9870    -0.2620 h1         1 3JZ       0.008367
     38 H34          2.5630     1.8140    -2.9880 h1         1 3JZ       0.063700
     39 H34A         1.3700     2.1980    -1.7390 h1         1 3JZ       0.063700
     40 H34B         3.0970     2.2640    -1.3630 h1         1 3JZ       0.063700
     41 H7           4.6980    -5.6220    -3.1660 h4         1 3JZ      -0.008900
     42 H18          4.0860    -0.0010     4.5460 ha         1 3JZ       0.106000
     43 H16         -0.3730    -8.8450    -0.7740 ha         1 3JZ       0.107000
     44 H19          3.3860     2.1320     3.5300 ha         1 3JZ       0.104000
     45 H17          3.5580    -2.1350     3.4300 ha         1 3JZ       0.110000
     46 H1           2.1550     2.1390     1.3970 ha         1 3JZ       0.104000
     47 H12          2.1720    -3.2940     1.8490 h1         1 3JZ       0.030700
     48 H12A         1.2790    -2.4200     0.5970 h1         1 3JZ       0.030700
     49 HN10         4.1200    -2.2870     0.1100 hn         1 3JZ       0.341800
     50 HN9          0.1010    -6.3320    -0.6020 hn         1 3JZ       0.291800
     51 H14          1.4390    -6.5230    -3.8800 ha         1 3JZ       0.138000
     52 H23          0.5190    -7.8850    -6.4900 hc         1 3JZ       0.054200
     53 H23A         2.1110    -8.5770    -6.0800 hc         1 3JZ       0.054200
     54 H15         -0.7610   -10.6770    -2.3650 ha         1 3JZ       0.105000
     55 HN25        -0.3940   -11.4370    -5.0340 hn         1 3JZ       0.173500
     56 C12          2.2310    -2.5070     1.1070 c3         1 3JZ       0.218100
@<TRIPOS>BOND
     1     1    16 1   
     2     1    35 1   
     3     1    36 1   
     4     1    37 1   
     5     2    14 1   
     6     2    38 1   
     7     2    39 1   
     8     2    40 1   
     9     3     4 ar  
    10     3    25 ar  
    11     4     5 ar  
    12     4    41 1   
    13     5     9 1   
    14     5    20 ar  
    15     6     7 ar  
    16     6    17 ar  
    17     6    56 1   
    18     7    16 1   
    19     7    18 ar  
    20     8    29 ar  
    21     8    31 ar  
    22     8    32 1   
    23     9    21 1   
    24     9    22 1   
    25     9    23 1   
    26    10    12 ar  
    27    10    17 ar  
    28    10    42 1   
    29    11    27 ar  
    30    11    31 ar  
    31    11    43 1   
    32    12    18 ar  
    33    12    44 1   
    34    13    14 2   
    35    14    15 2   
    36    14    16 1   
    37    17    45 1   
    38    18    46 1   
    39    19    20 1   
    40    19    49 1   
    41    19    56 1   
    42    20    24 ar  
    43    24    25 ar  
    44    25    26 1   
    45    26    27 1   
    46    26    50 1   
    47    27    28 ar  
    48    28    29 ar  
    49    28    51 1   
    50    29    30 1   
    51    30    33 1   
    52    30    52 1   
    53    30    53 1   
    54    31    54 1   
    55    32    33 1   
    56    32    55 1   
    57    33    34 2   
    58    47    56 1   
    59    48    56 1   
@<TRIPOS>SUBSTRUCTURE
     1 3JZ         1 TEMP              0 ****  ****    0 ROOT
