@<TRIPOS>MOLECULE
molecule
   27    29     1     0     0
SMALL
bcc


@<TRIPOS>ATOM
      1 O01          0.0000     0.0000     0.0000 oh         1 3K1      -0.478100
      2 C02          1.3600     0.0000     0.0000 cc         1 3K1      -0.071100
      3 C03          2.0550     0.0000     1.1760 cd         1 3K1       0.114600
      4 N04          3.3880    -0.0050     1.1650 nc         1 3K1      -0.647300
      5 C05          4.0660    -0.0110     0.0370 cd         1 3K1       0.543500
      6 C06          5.5410    -0.0160     0.0790 ca         1 3K1      -0.133900
      7 C07          6.2050    -0.0160     1.3080 ca         1 3K1      -0.087500
      8 C08          7.5810    -0.0220     1.3470 ca         1 3K1      -0.105000
      9 C09          8.3130    -0.0280     0.1580 ca         1 3K1      -0.106500
     10 C10          7.6500    -0.0290    -1.0710 ca         1 3K1      -0.105000
     11 C11          6.2740    -0.0290    -1.1110 ca         1 3K1      -0.087500
     12 C12          9.7920    -0.0350     0.2000 cd         1 3K1       0.400000
     13 N13         10.5520    -0.0400     1.2790 nc         1 3K1      -0.369000
     14 N14         11.7820    -0.0510     0.8960 nc         1 3K1      -0.027000
     15 N15         11.8350    -0.0520    -0.3910 nd         1 3K1      -0.216800
     16 N16         10.6330    -0.0420    -0.8610 na         1 3K1      -0.118400
     17 N17          3.4300    -0.0120    -1.1700 ns         1 3K1      -0.444400
     18 C18          2.0800    -0.0060    -1.2180 c          1 3K1       0.671700
     19 O19          1.4940    -0.0130    -2.2870 o          1 3K1      -0.617500
     20 H011        -0.3140     0.8780     0.1380 ho         1 3K1       0.419000
     21 H031         1.5220     0.0050     2.1190 h4         1 3K1       0.178000
     22 H071         5.6370    -0.0110     2.2310 ha         1 3K1       0.153500
     23 H081         8.0960    -0.0210     2.3000 ha         1 3K1       0.149000
     24 H101         8.2180    -0.0370    -1.9940 ha         1 3K1       0.149000
     25 H111         5.7600    -0.0300    -2.0640 ha         1 3K1       0.153500
     26 H161        10.3730    -0.0400    -1.8280 hn         1 3K1       0.344700
     27 H1           3.9620    -0.0170    -2.0180 hn         1 3K1       0.339500
@<TRIPOS>BOND
     1    14    13 1   
     2    14    15 2   
     3    13    12 2   
     4    15    16 1   
     5    12    16 1   
     6    12     9 1   
     7    10     9 ar  
     8    10    11 ar  
     9     9     8 ar  
    10    11     6 ar  
    11     8     7 ar  
    12     6     7 ar  
    13     6     5 1   
    14     4     5 2   
    15     4     3 1   
    16     5    17 1   
    17     3     2 2   
    18    17    18 1   
    19     2    18 1   
    20     2     1 1   
    21    18    19 2   
    22     1    20 1   
    23     3    21 1   
    24     7    22 1   
    25     8    23 1   
    26    10    24 1   
    27    11    25 1   
    28    16    26 1   
    29    17    27 1   
@<TRIPOS>SUBSTRUCTURE
     1 3K1         1 TEMP              0 ****  ****    0 ROOT
