@<TRIPOS>MOLECULE
3K1
   27    29     1     0     0
SMALL
bcc


@<TRIPOS>ATOM
      1 O01          0.0000     0.0000     0.0000 oh         1 3K1      -0.453100
      2 C02          1.3600     0.0000     0.0000 cc         1 3K1      -0.052100
      3 C03          2.0550     0.0000     1.1760 cd         1 3K1       0.085600
      4 N04          3.3880    -0.0050     1.1650 nd         1 3K1      -0.536300
      5 C05          4.0660    -0.0110     0.0370 cc         1 3K1       0.334500
      6 C06          5.5410    -0.0160     0.0790 ca         1 3K1      -0.142900
      7 C07          6.2050    -0.0160     1.3080 ca         1 3K1      -0.064500
      8 C08          7.5810    -0.0220     1.3470 ca         1 3K1      -0.082500
      9 C09          8.3130    -0.0280     0.1580 ca         1 3K1      -0.103500
     10 C10          7.6500    -0.0290    -1.0710 ca         1 3K1      -0.082500
     11 C11          6.2740    -0.0290    -1.1110 ca         1 3K1      -0.064500
     12 C12          9.7920    -0.0350     0.2000 cc         1 3K1       0.206000
     13 N13         10.5520    -0.0400     1.2790 nd         1 3K1      -0.335000
     14 N14         11.7820    -0.0510     0.8960 nd         1 3K1      -0.020000
     15 N15         11.8350    -0.0520    -0.3910 nc         1 3K1      -0.391800
     16 N16         10.6330    -0.0420    -0.8610 na         1 3K1       0.401600
     17 N17          3.4300    -0.0120    -1.1700 ns         1 3K1       0.027600
     18 C18          2.0800    -0.0060    -1.2180 c          1 3K1       0.569700
     19 O19          1.4940    -0.0130    -2.2870 o          1 3K1      -0.663500
     20 H011        -0.3140     0.8780     0.1380 ho         1 3K1       0.401000
     21 H031         1.5220     0.0050     2.1190 h4         1 3K1       0.133000
     22 H071         5.6370    -0.0110     2.2310 ha         1 3K1       0.122000
     23 H081         8.0960    -0.0210     2.3000 ha         1 3K1       0.117000
     24 H101         8.2180    -0.0370    -1.9940 ha         1 3K1       0.117000
     25 H111         5.7600    -0.0300    -2.0640 ha         1 3K1       0.122000
     26 H161        10.3730    -0.0400    -1.8280 hn         1 3K1       0.165700
     27 H1           3.9620    -0.0170    -2.0180 hn         1 3K1       0.187500
@<TRIPOS>BOND
     1     1     2 1   
     2     1    20 1   
     3     2     3 2   
     4     2    18 1   
     5     3     4 1   
     6     3    21 1   
     7     4     5 2   
     8     5     6 1   
     9     5    17 1   
    10     6     7 ar  
    11     6    11 ar  
    12     7     8 ar  
    13     7    22 1   
    14     8     9 ar  
    15     8    23 1   
    16     9    10 ar  
    17     9    12 1   
    18    10    11 ar  
    19    10    24 1   
    20    11    25 1   
    21    12    13 2   
    22    12    16 1   
    23    13    14 1   
    24    14    15 2   
    25    15    16 1   
    26    16    26 1   
    27    17    18 1   
    28    17    27 1   
    29    18    19 2   
@<TRIPOS>SUBSTRUCTURE
     1 3K1         1 TEMP              0 ****  ****    0 ROOT
