@<TRIPOS>MOLECULE
3K2
   69    73     1     0     0
SMALL
bcc


@<TRIPOS>ATOM
      1 C01          0.0000     0.0000     0.0000 ca         1 3K2      -0.217600
      2 C02          1.4020     0.0000     0.0000 ca         1 3K2      -0.083000
      3 C03          2.0970     0.0000     1.1730 ca         1 3K2      -0.099000
      4 C04          1.4190     0.0010     2.3900 ca         1 3K2      -0.185200
      5 C05          0.0100     0.0020     2.4040 ca         1 3K2      -0.119800
      6 C06         -0.6970     0.0010     1.2050 ca         1 3K2       0.037000
      7 N07          1.8350     0.0020     3.7000 na         1 3K2       0.437600
      8 C08          0.7520     0.0020     4.5350 cc         1 3K2      -0.230300
      9 C09         -0.3810     0.0030     3.8160 cd         1 3K2      -0.157400
     10 C10         -1.7870     0.0050     4.3570 c3         1 3K2       0.105100
     11 C11          0.8200     0.0040     6.0410 c3         1 3K2       0.086100
     12 C12          3.2340     0.0010     4.1360 c3         1 3K2       0.012600
     13 C13          3.7130    -1.4190     4.2880 ca         1 3K2      -0.156300
     14 C14         -0.7370     0.0050    -1.2800 c          1 3K2       0.621700
     15 O15         -1.9530     0.0110    -1.2800 o          1 3K2      -0.668100
     16 N16         -0.0630     0.0040    -2.4460 ns         1 3K2      -0.220900
     17 C17         -0.7950     0.0090    -3.7150 c3         1 3K2       0.070000
     18 C18          0.0730     0.6080    -4.7930 ca         1 3K2      -0.038300
     19 C19         -1.1640    -1.4260    -4.0970 c3         1 3K2      -0.013100
     20 C20          3.5690    -2.0700     5.5010 ca         1 3K2      -0.105500
     21 C21          4.0050    -3.3700     5.6450 ca         1 3K2      -0.050000
     22 C22          4.5930    -4.0300     4.5660 cp         1 3K2       0.040000
     23 C23          4.7350    -3.3690     3.3460 ca         1 3K2      -0.050000
     24 C24          4.2900    -2.0700     3.2130 ca         1 3K2      -0.105500
     25 C25          5.0640    -5.4260     4.7160 cp         1 3K2      -0.032000
     26 C26          4.1770    -6.4280     5.1000 ca         1 3K2      -0.125000
     27 C27          4.6200    -7.7280     5.2380 ca         1 3K2      -0.133000
     28 C28          5.9460    -8.0460     4.9970 ca         1 3K2      -0.138000
     29 C29          6.8410    -7.0690     4.6150 ca         1 3K2      -0.064000
     30 C30          6.4100    -5.7500     4.4650 ca         1 3K2      -0.089600
     31 C31          1.4210     0.3050    -4.8430 ca         1 3K2      -0.116500
     32 C32          2.2170     0.8540    -5.8310 ca         1 3K2      -0.006000
     33 C33          1.6640     1.7060    -6.7690 ca         1 3K2      -0.457200
     34 C34          0.3160     2.0090    -6.7190 ca         1 3K2      -0.006000
     35 C35         -0.4800     1.4560    -5.7340 ca         1 3K2      -0.116500
     36 N36          2.5160     2.2950    -7.8260 no         1 3K2       1.050200
     37 O37          3.7040     2.0290    -7.8700 o          1 3K2      -0.453000
     38 O38          2.0300     3.0450    -8.6530 o          1 3K2      -0.453000
     39 C39          7.3610    -4.7000     4.0560 c          1 3K2       0.968200
     40 O40          8.6190    -5.0310     3.7000 o          1 3K2      -0.878800
     41 O41          7.0130    -3.5360     4.0400 o          1 3K2      -0.878800
     42 H1           1.9390    -0.0010    -0.9410 ha         1 3K2       0.091000
     43 H2           3.1800     0.0000     1.1590 ha         1 3K2       0.112000
     44 H3          -1.7800     0.0010     1.2100 ha         1 3K2       0.119000
     45 H4          -1.8920    -0.7840     5.0920 hc         1 3K2      -0.000300
     46 H5          -1.9940     0.9610     4.8220 hc         1 3K2      -0.000300
     47 H6          -2.4860    -0.1620     3.5470 hc         1 3K2      -0.000300
     48 H7           0.8010    -1.0170     6.4040 hc         1 3K2       0.011700
     49 H8           1.7370     0.4840     6.3600 hc         1 3K2       0.011700
     50 H9          -0.0290     0.5450     6.4400 hc         1 3K2       0.011700
     51 H10          3.3150     0.5130     5.0880 h1         1 3K2       0.034200
     52 H11          3.8430     0.5110     3.3990 h1         1 3K2       0.034200
     53 H12          0.9380     0.0300    -2.4460 hn         1 3K2       0.191500
     54 H13         -1.6980     0.5990    -3.6090 h1         1 3K2       0.060700
     55 H14         -2.1430    -1.6650    -3.6980 hc         1 3K2       0.015367
     56 H15         -0.4310    -2.1080    -3.6860 hc         1 3K2       0.015367
     57 H16         -1.1800    -1.5200    -5.1760 hc         1 3K2       0.015367
     58 H17          3.1120    -1.5570     6.3390 ha         1 3K2       0.091000
     59 H18          3.8920    -3.8790     6.5950 ha         1 3K2       0.108000
     60 H19          5.1880    -3.8770     2.5040 ha         1 3K2       0.108000
     61 H20          4.4000    -1.5570     2.2650 ha         1 3K2       0.091000
     62 H21          3.1380    -6.1870     5.2890 ha         1 3K2       0.092000
     63 H22          3.9270    -8.5040     5.5400 ha         1 3K2       0.083000
     64 H23          6.2840    -9.0690     5.1110 ha         1 3K2       0.085000
     65 H24          7.8780    -7.3240     4.4340 ha         1 3K2       0.130000
     66 H25          1.8530    -0.3620    -4.1070 ha         1 3K2       0.122500
     67 H26          3.2730     0.6170    -5.8700 ha         1 3K2       0.132000
     68 H27         -0.1170     2.6750    -7.4560 ha         1 3K2       0.132000
     69 H28         -1.5370     1.6930    -5.6940 ha         1 3K2       0.122500
@<TRIPOS>BOND
     1     1     2 ar  
     2     1     6 ar  
     3     1    14 1   
     4     2     3 ar  
     5     2    42 1   
     6     3     4 ar  
     7     3    43 1   
     8     4     5 ar  
     9     4     7 1   
    10     5     6 ar  
    11     5     9 1   
    12     6    44 1   
    13     7     8 1   
    14     7    12 1   
    15     8     9 2   
    16     8    11 1   
    17     9    10 1   
    18    10    45 1   
    19    10    46 1   
    20    10    47 1   
    21    11    48 1   
    22    11    49 1   
    23    11    50 1   
    24    12    13 1   
    25    12    51 1   
    26    12    52 1   
    27    13    20 ar  
    28    13    24 ar  
    29    14    15 2   
    30    14    16 1   
    31    16    17 1   
    32    16    53 1   
    33    17    18 1   
    34    17    19 1   
    35    17    54 1   
    36    18    31 ar  
    37    18    35 ar  
    38    19    55 1   
    39    19    56 1   
    40    19    57 1   
    41    20    21 ar  
    42    20    58 1   
    43    21    22 ar  
    44    21    59 1   
    45    22    23 ar  
    46    22    25 1   
    47    23    24 ar  
    48    23    60 1   
    49    24    61 1   
    50    25    26 ar  
    51    25    30 ar  
    52    26    27 ar  
    53    26    62 1   
    54    27    28 ar  
    55    27    63 1   
    56    28    29 ar  
    57    28    64 1   
    58    29    30 ar  
    59    29    65 1   
    60    30    39 1   
    61    31    32 ar  
    62    31    66 1   
    63    32    33 ar  
    64    32    67 1   
    65    33    34 ar  
    66    33    36 1   
    67    34    35 ar  
    68    34    68 1   
    69    35    69 1   
    70    36    37 1   
    71    36    38 1   
    72    39    40 1   
    73    39    41 1   
@<TRIPOS>SUBSTRUCTURE
     1 3K2         1 TEMP              0 ****  ****    0 ROOT
