@<TRIPOS>MOLECULE
molecule
   69    73     1     0     0
SMALL
bcc


@<TRIPOS>ATOM
      1 C01          0.0000     0.0000     0.0000 ca         1 3K2      -0.200600
      2 C02          1.4020     0.0000     0.0000 ca         1 3K2      -0.099000
      3 C03          2.0970     0.0000     1.1730 ca         1 3K2      -0.137000
      4 C04          1.4190     0.0010     2.3900 ca         1 3K2      -0.005200
      5 C05          0.0100     0.0020     2.4040 ca         1 3K2      -0.116800
      6 C06         -0.6970     0.0010     1.2050 ca         1 3K2      -0.008000
      7 N07          1.8350     0.0020     3.7000 na         1 3K2      -0.045400
      8 C08          0.7520     0.0020     4.5350 cc         1 3K2      -0.039300
      9 C09         -0.3810     0.0030     3.8160 cd         1 3K2      -0.160400
     10 C10         -1.7870     0.0050     4.3570 c3         1 3K2      -0.010900
     11 C11          0.8200     0.0040     6.0410 c3         1 3K2      -0.030900
     12 C12          3.2340     0.0010     4.1360 c3         1 3K2       0.095600
     13 C13          3.7130    -1.4190     4.2880 ca         1 3K2      -0.140300
     14 C14         -0.7370     0.0050    -1.2800 c          1 3K2       0.688700
     15 O15         -1.9530     0.0110    -1.2800 o          1 3K2      -0.628100
     16 N16         -0.0630     0.0040    -2.4460 ns         1 3K2      -0.589900
     17 C17         -0.7950     0.0090    -3.7150 c3         1 3K2       0.157000
     18 C18          0.0730     0.6080    -4.7930 ca         1 3K2      -0.047300
     19 C19         -1.1640    -1.4260    -4.0970 c3         1 3K2      -0.105100
     20 C20          3.5690    -2.0700     5.5010 ca         1 3K2      -0.126500
     21 C21          4.0050    -3.3700     5.6450 ca         1 3K2      -0.075000
     22 C22          4.5930    -4.0300     4.5660 cp         1 3K2       0.030000
     23 C23          4.7350    -3.3690     3.3460 ca         1 3K2      -0.075000
     24 C24          4.2900    -2.0700     3.2130 ca         1 3K2      -0.126500
     25 C25          5.0640    -5.4260     4.7160 cp         1 3K2      -0.040000
     26 C26          4.1770    -6.4280     5.1000 ca         1 3K2      -0.142000
     27 C27          4.6200    -7.7280     5.2380 ca         1 3K2      -0.155000
     28 C28          5.9460    -8.0460     4.9970 ca         1 3K2      -0.157000
     29 C29          6.8410    -7.0690     4.6150 ca         1 3K2      -0.094000
     30 C30          6.4100    -5.7500     4.4650 ca         1 3K2      -0.088600
     31 C31          1.4210     0.3050    -4.8430 ca         1 3K2      -0.132000
     32 C32          2.2170     0.8540    -5.8310 ca         1 3K2      -0.066500
     33 C33          1.6640     1.7060    -6.7690 ca         1 3K2      -0.161200
     34 C34          0.3160     2.0090    -6.7190 ca         1 3K2      -0.066500
     35 C35         -0.4800     1.4560    -5.7340 ca         1 3K2      -0.132000
     36 N36          2.5160     2.2950    -7.8260 no         1 3K2       0.295200
     37 O37          3.7040     2.0290    -7.8700 o          1 3K2      -0.209500
     38 O38          2.0300     3.0450    -8.6530 o          1 3K2      -0.209500
     39 C39          7.3610    -4.7000     4.0560 c          1 3K2       0.876200
     40 O40          8.6190    -5.0310     3.7000 o          1 3K2      -0.828800
     41 O41          7.0130    -3.5360     4.0400 o          1 3K2      -0.828800
     42 H1           1.9390    -0.0010    -0.9410 ha         1 3K2       0.115000
     43 H2           3.1800     0.0000     1.1590 ha         1 3K2       0.137000
     44 H3          -1.7800     0.0010     1.2100 ha         1 3K2       0.149000
     45 H4          -1.8920    -0.7840     5.0920 hc         1 3K2       0.035033
     46 H5          -1.9940     0.9610     4.8220 hc         1 3K2       0.035033
     47 H6          -2.4860    -0.1620     3.5470 hc         1 3K2       0.035033
     48 H7           0.8010    -1.0170     6.4040 hc         1 3K2       0.049700
     49 H8           1.7370     0.4840     6.3600 hc         1 3K2       0.049700
     50 H9          -0.0290     0.5450     6.4400 hc         1 3K2       0.049700
     51 H10          3.3150     0.5130     5.0880 h1         1 3K2       0.060700
     52 H11          3.8430     0.5110     3.3990 h1         1 3K2       0.060700
     53 H12          0.9380     0.0300    -2.4460 hn         1 3K2       0.319500
     54 H13         -1.6980     0.5990    -3.6090 h1         1 3K2       0.087700
     55 H14         -2.1430    -1.6650    -3.6980 hc         1 3K2       0.048700
     56 H15         -0.4310    -2.1080    -3.6860 hc         1 3K2       0.048700
     57 H16         -1.1800    -1.5200    -5.1760 hc         1 3K2       0.048700
     58 H17          3.1120    -1.5570     6.3390 ha         1 3K2       0.109500
     59 H18          3.8920    -3.8790     6.5950 ha         1 3K2       0.135000
     60 H19          5.1880    -3.8770     2.5040 ha         1 3K2       0.135000
     61 H20          4.4000    -1.5570     2.2650 ha         1 3K2       0.109500
     62 H21          3.1380    -6.1870     5.2890 ha         1 3K2       0.113000
     63 H22          3.9270    -8.5040     5.5400 ha         1 3K2       0.104000
     64 H23          6.2840    -9.0690     5.1110 ha         1 3K2       0.107000
     65 H24          7.8780    -7.3240     4.4340 ha         1 3K2       0.156000
     66 H25          1.8530    -0.3620    -4.1070 ha         1 3K2       0.151000
     67 H26          3.2730     0.6170    -5.8700 ha         1 3K2       0.166000
     68 H27         -0.1170     2.6750    -7.4560 ha         1 3K2       0.166000
     69 H28         -1.5370     1.6930    -5.6940 ha         1 3K2       0.151000
@<TRIPOS>BOND
     1    28    29 ar  
     2    28    27 ar  
     3    29    30 ar  
     4    27    26 ar  
     5    41    39 1   
     6    30    39 1   
     7    30    25 ar  
     8    26    25 ar  
     9    39    40 1   
    10    21    20 ar  
    11    21    22 ar  
    12    25    22 1   
    13    20    13 ar  
    14    22    23 ar  
    15    13    12 1   
    16    13    24 ar  
    17    23    24 ar  
    18    12     7 1   
    19    11     8 1   
    20     7     8 1   
    21     7     4 1   
    22     8     9 2   
    23     3     4 ar  
    24     3     2 ar  
    25     4     5 ar  
    26     9     5 1   
    27     9    10 1   
    28     2     1 ar  
    29     5     6 ar  
    30     1     6 ar  
    31     1    14 1   
    32    38    36 1   
    33    14    15 2   
    34    14    16 1   
    35    32    31 ar  
    36    32    33 ar  
    37    31    18 ar  
    38    36    33 1   
    39    36    37 1   
    40    16    17 1   
    41    33    34 ar  
    42    18    17 1   
    43    18    35 ar  
    44    17    19 1   
    45    34    35 ar  
    46     2    42 1   
    47     3    43 1   
    48     6    44 1   
    49    10    45 1   
    50    10    46 1   
    51    10    47 1   
    52    11    48 1   
    53    11    49 1   
    54    11    50 1   
    55    12    51 1   
    56    12    52 1   
    57    16    53 1   
    58    17    54 1   
    59    19    55 1   
    60    19    56 1   
    61    19    57 1   
    62    20    58 1   
    63    21    59 1   
    64    23    60 1   
    65    24    61 1   
    66    26    62 1   
    67    27    63 1   
    68    28    64 1   
    69    29    65 1   
    70    31    66 1   
    71    32    67 1   
    72    34    68 1   
    73    35    69 1   
@<TRIPOS>SUBSTRUCTURE
     1 3K2         1 TEMP              0 ****  ****    0 ROOT
