@<TRIPOS>MOLECULE
3K3
   52    58     1     0     0
SMALL
bcc


@<TRIPOS>ATOM
      1 F2           0.0000     0.0000     0.0000 f          1 3K3      -0.208300
      2 C19          1.3990     0.0000     0.0000 c3         1 3K3       0.643200
      3 F            1.8660     0.0000     1.3190 f          1 3K3      -0.208300
      4 F1           1.8650    -1.1420    -0.6600 f          1 3K3      -0.208300
      5 C18          1.9010     1.2310    -0.7110 ca         1 3K3      -0.225300
      6 C17          3.1180     1.7880    -0.3430 ca         1 3K3      -0.042000
      7 C16          3.5930     2.9130    -0.9820 ca         1 3K3      -0.087000
      8 C20          1.1570     1.7820    -1.7150 ca         1 3K3       0.034000
      9 C21          1.6190     2.9230    -2.3780 ca         1 3K3       0.050400
     10 C15          2.8480     3.4910    -2.0020 ca         1 3K3      -0.254200
     11 N            3.0280     4.5870    -2.8210 na         1 3K3       0.273700
     12 N1           1.1230     3.6840    -3.3870 nc         1 3K3      -0.484100
     13 C14          1.9450     4.6610    -3.6410 cd         1 3K3       0.231800
     14 C13          1.7320     5.7140    -4.6970 cx         1 3K3      -0.052000
     15 C9           2.5980     6.9740    -4.6220 cx         1 3K3       0.071100
     16 O2           2.7380     7.7920    -5.7840 os         1 3K3      -0.239900
     17 C10          1.1040     7.0390    -4.2580 cx         1 3K3      -0.064400
     18 C11          0.5190     7.9480    -5.3150 ca         1 3K3      -0.136300
     19 C8           1.5490     8.3340    -6.1570 ca         1 3K3       0.126100
     20 C7           1.2660     9.1840    -7.2260 ca         1 3K3      -0.106000
     21 C6          -0.0200     9.6310    -7.4390 ca         1 3K3      -0.069000
     22 C12         -0.7690     8.3940    -5.5260 ca         1 3K3      -0.061000
     23 C5          -1.0460     9.2400    -6.5920 ca         1 3K3       0.063100
     24 O1          -2.3140     9.6820    -6.8030 os         1 3K3      -0.203200
     25 C4          -2.8510    10.5350    -5.8940 ca         1 3K3       0.204100
     26 C22         -2.0800    11.0450    -4.8480 ca         1 3K3      -0.350300
     27 C23         -2.6620    11.9090    -3.9450 ca         1 3K3       0.474200
     28 N2          -3.9300    12.2580    -4.0560 nb         1 3K3      -0.641000
     29 C24         -4.6980    11.7980    -5.0350 ca         1 3K3       0.401200
     30 N3          -6.0330    12.1920    -5.1170 ns         1 3K3      -0.094400
     31 C           -6.9130    11.4830    -5.8450 c          1 3K3       0.601500
     32 O           -8.0670    11.8520    -5.9150 o          1 3K3      -0.661500
     33 C3          -4.1790    10.9290    -5.9830 ca         1 3K3      -0.285600
     34 C2          -5.0520    10.4140    -7.0960 c3         1 3K3       0.052900
     35 C1          -6.4860    10.2390    -6.5760 c3         1 3K3      -0.095400
     36 H1           3.6990     1.3350     0.4510 ha         1 3K3       0.120000
     37 H2           4.5430     3.3440    -0.6910 ha         1 3K3       0.108000
     38 H3           0.2460     1.2970    -2.0430 ha         1 3K3       0.125000
     39 H4           3.8070     5.2150    -2.8090 hn         1 3K3       0.131700
     40 H6           1.4740     5.4010    -5.7020 hc         1 3K3       0.089700
     41 H7           3.2720     7.1010    -3.7840 h1         1 3K3       0.077700
     42 H8           0.9070     7.2170    -3.2070 hc         1 3K3       0.076700
     43 H9           2.0620     9.4940    -7.8930 ha         1 3K3       0.119000
     44 H10         -0.2310    10.2910    -8.2720 ha         1 3K3       0.120000
     45 H11         -1.5660     8.0850    -4.8600 ha         1 3K3       0.124000
     46 H12         -1.0380    10.7650    -4.7470 ha         1 3K3       0.138000
     47 H13         -2.0690    12.3080    -3.1310 h4         1 3K3      -0.019900
     48 H14         -6.3390    13.0110    -4.6290 hn         1 3K3       0.188500
     49 H15         -4.6740     9.4580    -7.4370 hc         1 3K3       0.031200
     50 H16         -5.0490    11.1240    -7.9140 hc         1 3K3       0.031200
     51 H17         -7.1530    10.0670    -7.4130 hc         1 3K3       0.044700
     52 H18         -6.5230     9.3940    -5.9000 hc         1 3K3       0.044700
@<TRIPOS>BOND
     1     1     2 1   
     2     2     3 1   
     3     2     4 1   
     4     2     5 1   
     5     5     6 ar  
     6     5     8 ar  
     7     6     7 ar  
     8     6    36 1   
     9     7    10 ar  
    10     7    37 1   
    11     8     9 ar  
    12     8    38 1   
    13     9    10 ar  
    14     9    12 1   
    15    10    11 1   
    16    11    13 1   
    17    11    39 1   
    18    12    13 2   
    19    13    14 1   
    20    14    15 1   
    21    14    17 1   
    22    14    40 1   
    23    15    16 1   
    24    15    17 1   
    25    15    41 1   
    26    16    19 1   
    27    17    18 1   
    28    17    42 1   
    29    18    19 ar  
    30    18    22 ar  
    31    19    20 ar  
    32    20    21 ar  
    33    20    43 1   
    34    21    23 ar  
    35    21    44 1   
    36    22    23 ar  
    37    22    45 1   
    38    23    24 1   
    39    24    25 1   
    40    25    26 ar  
    41    25    33 ar  
    42    26    27 ar  
    43    26    46 1   
    44    27    28 ar  
    45    27    47 1   
    46    28    29 ar  
    47    29    30 1   
    48    29    33 ar  
    49    30    31 1   
    50    30    48 1   
    51    31    32 2   
    52    31    35 1   
    53    33    34 1   
    54    34    35 1   
    55    34    49 1   
    56    34    50 1   
    57    35    51 1   
    58    35    52 1   
@<TRIPOS>SUBSTRUCTURE
     1 3K3         1 TEMP              0 ****  ****    0 ROOT
