@<TRIPOS>MOLECULE
molecule
   55    59     1     0     0
SMALL
bcc


@<TRIPOS>ATOM
      1 C1           0.0000     0.0000     0.0000 c3         1 3K6       0.151500
      2 C2           1.5330     0.0000     0.0000 c3         1 3K6       0.086300
      3 C3           3.2410    -0.1890     3.1860 cc         1 3K6       0.352200
      4 O1          -0.0720     2.6580     9.3140 o          1 3K6      -0.636300
      5 C11         -1.6640    -0.7630     9.7390 c3         1 3K6       0.229600
      6 C12         -2.6310     1.4640     9.0030 c3         1 3K6       0.229600
      7 C13          1.2000     0.3210     2.4420 cd         1 3K6      -0.051600
      8 C14         -0.2470     0.7220     2.3060 c3         1 3K6       0.223100
      9 C15         -1.8460     1.3060     0.6700 ca         1 3K6       0.171600
     10 C16         -2.8170     0.8200     1.5400 ca         1 3K6      -0.343300
     11 C17         -4.1500     1.0890     1.2840 ca         1 3K6       0.467200
     12 C18         -3.6450     2.2860    -0.6290 ca         1 3K6       0.481800
     13 C19         -2.5350     3.2900    -2.3060 cc         1 3K6      -0.098100
     14 C20         -1.5850     2.7230    -1.5450 cd         1 3K6      -0.182200
     15 C21         -2.2710     2.0580    -0.4370 ca         1 3K6      -0.222100
     16 O            0.8820     0.4650    10.0390 o          1 3K6      -0.636300
     17 N2          -1.4710     0.6260     9.3150 n3         1 3K6      -0.825500
     18 C8           0.6100     0.9450     7.5430 ca         1 3K6      -0.324500
     19 C7           1.2790    -0.2290     7.2460 ca         1 3K6      -0.027000
     20 C6           1.7140    -0.4720     5.9580 ca         1 3K6      -0.151000
     21 C9           0.3680     1.8790     6.5520 ca         1 3K6      -0.027000
     22 C10          0.7980     1.6460     5.2610 ca         1 3K6      -0.151000
     23 C5           1.4770     0.4670     4.9580 ca         1 3K6       0.063000
     24 C4           1.9430     0.2110     3.5710 cc         1 3K6      -0.279300
     25 N1           3.2600    -0.3120     1.8840 nd         1 3K6      -0.501800
     26 N            1.9930     0.0000     1.3930 na         1 3K6       0.075400
     27 N3          -0.4960     1.0580     0.8920 nh         1 3K6      -0.597000
     28 C           -0.5080    -1.3570     0.4900 c3         1 3K6      -0.138100
     29 N5          -3.7710     3.0380    -1.7720 na         1 3K6      -0.279100
     30 N4          -4.5240     1.7930     0.2350 nb         1 3K6      -0.723000
     31 H1          -0.3580     0.1820    -1.0060 h1         1 3K6       0.090700
     32 H2           1.8750    -0.9130    -0.4720 h1         1 3K6       0.076700
     33 H3           1.8750     0.9130    -0.4720 h1         1 3K6       0.076700
     34 H4           4.0780    -0.3580     3.8530 h4         1 3K6       0.055100
     35 H5          -2.6440    -1.1040     9.4270 h1         1 3K6       0.042533
     36 H6          -0.9030    -1.3880     9.2850 h1         1 3K6       0.042533
     37 H7          -1.5860    -0.8260    10.8170 h1         1 3K6       0.042533
     38 H8          -3.2580     1.5550     9.8820 h1         1 3K6       0.042533
     39 H9          -2.2950     2.4470     8.6960 h1         1 3K6       0.042533
     40 H10         -3.2000     1.0100     8.2000 h1         1 3K6       0.042533
     41 H11         -0.8840    -0.1030     2.6020 h1         1 3K6       0.070200
     42 H12         -0.4460     1.5870     2.9270 h1         1 3K6       0.070200
     43 H13         -2.5330     0.2390     2.4090 ha         1 3K6       0.143000
     44 H14         -4.9050     0.7100     1.9620 h4         1 3K6       0.025100
     45 H15         -2.3510     3.8610    -3.2080 h4         1 3K6       0.172000
     46 H16         -0.5160     2.7530    -1.7170 ha         1 3K6       0.160000
     47 H17          1.4620    -0.9590     8.0250 ha         1 3K6       0.149000
     48 H18          2.2390    -1.3900     5.7270 ha         1 3K6       0.140500
     49 H19         -0.1600     2.7950     6.7890 ha         1 3K6       0.149000
     50 H20          0.6100     2.3790     4.4860 ha         1 3K6       0.140500
     51 H21         -0.2290    -2.1250    -0.2200 hc         1 3K6       0.051367
     52 H22         -0.0690    -1.5800     1.4550 hc         1 3K6       0.051367
     53 H23         -1.5870    -1.3260     0.5840 hc         1 3K6       0.051367
     54 H24         -4.6390     3.3550    -2.1580 hn         1 3K6       0.307700
     55 S            0.0580     1.2490     9.1880 sy         1 3K6       1.427200
@<TRIPOS>BOND
     1    30    12 ar
     2    30    11 ar
     3    29    12 1
     4    29    13 1
     5    12    15 ar
     6    11    10 ar
     7    13    14 2
     8    15    14 1
     9    15     9 ar
    10    10     9 ar
    11     9    27 1
    12    27     1 1
    13    27     8 1
    14    28     1 1
    15     1     2 1
    16     8     7 1
    17     2    26 1
    18     7    26 1
    19     7    24 2
    20    26    25 1
    21    20    19 ar
    22    20    23 ar
    23    19    18 ar
    24     5    17 1
    25    24    23 1
    26    24     3 1
    27    23    22 ar
    28     4    55 2
    29    25     3 2
    30    18    55 1
    31    18    21 ar
    32    17    55 1
    33    17     6 1
    34    55    16 2
    35    22    21 ar
    36     1    31 1
    37     2    32 1
    38     2    33 1
    39     3    34 1
    40     5    35 1
    41     5    36 1
    42     5    37 1
    43     6    38 1
    44     6    39 1
    45     6    40 1
    46     8    41 1
    47     8    42 1
    48    10    43 1
    49    11    44 1
    50    13    45 1
    51    14    46 1
    52    19    47 1
    53    20    48 1
    54    21    49 1
    55    22    50 1
    56    28    51 1
    57    28    52 1
    58    28    53 1
    59    29    54 1
@<TRIPOS>SUBSTRUCTURE
     1 3K6         1 TEMP              0 ****  ****    0 ROOT
