@<TRIPOS>MOLECULE
3K6
   55    59     1     0     0
SMALL
bcc


@<TRIPOS>ATOM
      1 C1           0.0000     0.0000     0.0000 c3         1 3K6       0.104500
      2 C2           1.5330     0.0000     0.0000 c3         1 3K6      -0.001700
      3 C3           3.2410    -0.1890     3.1860 cc         1 3K6       0.413200
      4 O1          -0.0720     2.6580     9.3140 o          1 3K6      -0.588300
      5 C11         -1.6640    -0.7630     9.7390 c3         1 3K6       0.277100
      6 C12         -2.6310     1.4640     9.0030 c3         1 3K6       0.277100
      7 C13          1.2000     0.3210     2.4420 cd         1 3K6      -0.218600
      8 C14         -0.2470     0.7220     2.3060 c3         1 3K6       0.208100
      9 C15         -1.8460     1.3060     0.6700 ca         1 3K6       0.100600
     10 C16         -2.8170     0.8200     1.5400 ca         1 3K6      -0.320300
     11 C17         -4.1500     1.0890     1.2840 ca         1 3K6       0.439200
     12 C18         -3.6450     2.2860    -0.6290 ca         1 3K6       0.245800
     13 C19         -2.5350     3.2900    -2.3060 cc         1 3K6      -0.265100
     14 C20         -1.5850     2.7230    -1.5450 cd         1 3K6      -0.144200
     15 C21         -2.2710     2.0580    -0.4370 ca         1 3K6      -0.223100
     16 O            0.8820     0.4650    10.0390 o          1 3K6      -0.588300
     17 N2          -1.4710     0.6260     9.3150 n3         1 3K6      -0.542500
     18 C8           0.6100     0.9450     7.5430 ca         1 3K6      -0.172500
     19 C7           1.2790    -0.2290     7.2460 ca         1 3K6       0.008500
     20 C6           1.7140    -0.4720     5.9580 ca         1 3K6      -0.140000
     21 C9           0.3680     1.8790     6.5520 ca         1 3K6       0.008500
     22 C10          0.7980     1.6460     5.2610 ca         1 3K6      -0.140000
     23 C5           1.4770     0.4670     4.9580 ca         1 3K6       0.079000
     24 C4           1.9430     0.2110     3.5710 cc         1 3K6      -0.284300
     25 N1           3.2600    -0.3120     1.8840 nd         1 3K6      -0.642800
     26 N            1.9930     0.0000     1.3930 na         1 3K6       0.502400
     27 N3          -0.4960     1.0580     0.8920 nh         1 3K6      -0.371000
     28 C           -0.5080    -1.3570     0.4900 c3         1 3K6      -0.057100
     29 N5          -3.7710     3.0380    -1.7720 na         1 3K6       0.261900
     30 N4          -4.5240     1.7930     0.2350 nb         1 3K6      -0.588000
     31 H1          -0.3580     0.1820    -1.0060 h1         1 3K6       0.060700
     32 H2           1.8750    -0.9130    -0.4720 h1         1 3K6       0.044700
     33 H3           1.8750     0.9130    -0.4720 h1         1 3K6       0.044700
     34 H4           4.0780    -0.3580     3.8530 h4         1 3K6       0.009100
     35 H5          -2.6440    -1.1040     9.4270 h1         1 3K6       0.001700
     36 H6          -0.9030    -1.3880     9.2850 h1         1 3K6       0.001700
     37 H7          -1.5860    -0.8260    10.8170 h1         1 3K6       0.001700
     38 H8          -3.2580     1.5550     9.8820 h1         1 3K6       0.001700
     39 H9          -2.2950     2.4470     8.6960 h1         1 3K6       0.001700
     40 H10         -3.2000     1.0100     8.2000 h1         1 3K6       0.001700
     41 H11         -0.8840    -0.1030     2.6020 h1         1 3K6       0.042700
     42 H12         -0.4460     1.5870     2.9270 h1         1 3K6       0.042700
     43 H13         -2.5330     0.2390     2.4090 ha         1 3K6       0.131000
     44 H14         -4.9050     0.7100     1.9620 h4         1 3K6      -0.021900
     45 H15         -2.3510     3.8610    -3.2080 h4         1 3K6       0.144000
     46 H16         -0.5160     2.7530    -1.7170 ha         1 3K6       0.134000
     47 H17          1.4620    -0.9590     8.0250 ha         1 3K6       0.121000
     48 H18          2.2390    -1.3900     5.7270 ha         1 3K6       0.116500
     49 H19         -0.1600     2.7950     6.7890 ha         1 3K6       0.121000
     50 H20          0.6100     2.3790     4.4860 ha         1 3K6       0.116500
     51 H21         -0.2290    -2.1250    -0.2200 hc         1 3K6       0.023700
     52 H22         -0.0690    -1.5800     1.4550 hc         1 3K6       0.023700
     53 H23         -1.5870    -1.3260     0.5840 hc         1 3K6       0.023700
     54 H24         -4.6390     3.3550    -2.1580 hn         1 3K6       0.120700
     55 S            0.0580     1.2490     9.1880 sy         1 3K6       1.055200
@<TRIPOS>BOND
     1     1     2 1   
     2     1    27 1   
     3     1    28 1   
     4     1    31 1   
     5     2    26 1   
     6     2    32 1   
     7     2    33 1   
     8     3    24 1   
     9     3    25 2   
    10     3    34 1   
    11     4    55 2   
    12     5    17 1   
    13     5    35 1   
    14     5    36 1   
    15     5    37 1   
    16     6    17 1   
    17     6    38 1   
    18     6    39 1   
    19     6    40 1   
    20     7     8 1   
    21     7    24 2   
    22     7    26 1   
    23     8    27 1   
    24     8    41 1   
    25     8    42 1   
    26     9    10 ar  
    27     9    15 ar  
    28     9    27 1   
    29    10    11 ar  
    30    10    43 1   
    31    11    30 ar  
    32    11    44 1   
    33    12    15 ar  
    34    12    29 1   
    35    12    30 ar  
    36    13    14 2   
    37    13    29 1   
    38    13    45 1   
    39    14    15 1   
    40    14    46 1   
    41    16    55 2   
    42    17    55 1   
    43    18    19 ar  
    44    18    21 ar  
    45    18    55 1   
    46    19    20 ar  
    47    19    47 1   
    48    20    23 ar  
    49    20    48 1   
    50    21    22 ar  
    51    21    49 1   
    52    22    23 ar  
    53    22    50 1   
    54    23    24 1   
    55    25    26 1   
    56    28    51 1   
    57    28    52 1   
    58    28    53 1   
    59    29    54 1   
@<TRIPOS>SUBSTRUCTURE
     1 3K6         1 TEMP              0 ****  ****    0 ROOT
