@<TRIPOS>MOLECULE
molecule
   37    39     1     0     0
SMALL
bcc


@<TRIPOS>ATOM
      1 C1           0.0000     0.0000     0.0000 ca         1 3K7      -0.172000
      2 C2           1.3960     0.0000     0.0000 ca         1 3K7      -0.026800
      3 C3           2.0900     0.0000     1.2110 ca         1 3K7      -0.094000
      4 C4           1.3970     0.0010     2.4030 ca         1 3K7      -0.193000
      5 C5           0.0110     0.0010     2.4040 ca         1 3K7       0.124100
      6 C6          -0.6890     0.0060     1.1990 ca         1 3K7       0.112100
      7 O1          -0.6680     0.0020     3.5820 os         1 3K7      -0.312900
      8 O2          -2.0490     0.0070     1.2020 os         1 3K7      -0.312900
      9 C7           2.1360    -0.0020    -1.2790 cc         1 3K7      -0.062300
     10 C8           1.8720    -0.7840    -2.3820 cd         1 3K7       0.066400
     11 N9           2.7610    -0.4880    -3.3260 nc         1 3K7      -0.282600
     12 C10          3.5850     0.4510    -2.8770 cd         1 3K7      -0.117300
     13 N11          3.2160     0.7790    -1.6000 na         1 3K7       0.218200
     14 C12          4.6890     1.1120    -3.4650 cd         1 3K7       0.301600
     15 C13          5.3640     2.0650    -2.7310 cc         1 3K7      -0.360300
     16 C14          4.9520     2.3620    -1.4280 cc         1 3K7       0.531300
     17 N18          3.9240     1.7560    -0.8930 nd         1 3K7      -0.509800
     18 C9           0.7660    -1.8000    -2.4990 c3         1 3K7      -0.006900
     19 Cl           5.8040     3.5690    -0.5170 cl         1 3K7      -0.121000
     20 N12          5.0870     0.8050    -4.7620 nv         1 3K7      -0.919200
     21 C11         -2.7010     0.0110    -0.0690 c3         1 3K7       0.126700
     22 C15          0.1110     0.0020     4.7790 c3         1 3K7       0.126700
     23 H1          -0.5430     0.0020    -0.9380 ha         1 3K7       0.146000
     24 H2           3.1730     0.0000     1.2140 ha         1 3K7       0.145000
     25 H3           1.9370    -0.0010     3.3420 ha         1 3K7       0.143000
     26 H4           6.2180     2.5750    -3.1600 ha         1 3K7       0.160000
     27 H5          -0.1640    -1.2970    -2.7360 hc         1 3K7       0.050700
     28 H6           1.0050    -2.5060    -3.2860 hc         1 3K7       0.050700
     29 H7           0.6600    -2.3290    -1.5600 hc         1 3K7       0.050700
     30 H8           4.4160     0.8070    -5.5040 hn         1 3K7       0.446800
     31 H9           6.0520     0.6300    -4.9610 hn         1 3K7       0.446800
     32 H10         -2.3610     0.8620    -0.6470 h1         1 3K7       0.040367
     33 H11         -3.7720     0.0770     0.0750 h1         1 3K7       0.040367
     34 H12         -2.4640    -0.9030    -0.6000 h1         1 3K7       0.040367
     35 H13         -0.5470    -0.0450     5.6390 h1         1 3K7       0.040700
     36 H14          0.7700    -0.8580     4.7820 h1         1 3K7       0.040700
     37 H15          0.7010     0.9090     4.8260 h1         1 3K7       0.040700
@<TRIPOS>BOND
     1    22     7 1   
     2     7     5 1   
     3    19    16 1   
     4     4     5 ar  
     5     4     3 ar  
     6     5     6 ar  
     7     3     2 ar  
     8    16    17 2   
     9    16    15 1   
    10    17    13 1   
    11     6     8 1   
    12     6     1 ar  
    13     2     1 ar  
    14     2     9 1   
    15    15    14 2   
    16    21     8 1   
    17    13     9 1   
    18    13    12 1   
    19     9    10 2   
    20    14    12 1   
    21    14    20 1   
    22    12    11 2   
    23    10    11 1   
    24    10    18 1   
    25     1    23 1   
    26     3    24 1   
    27     4    25 1   
    28    15    26 1   
    29    18    27 1   
    30    18    28 1   
    31    18    29 1   
    32    20    30 1   
    33    20    31 1   
    34    21    32 1   
    35    21    33 1   
    36    21    34 1   
    37    22    35 1   
    38    22    36 1   
    39    22    37 1   
@<TRIPOS>SUBSTRUCTURE
     1 3K7         1 TEMP              0 ****  ****    0 ROOT
