@<TRIPOS>MOLECULE
3K9
   49    53     1     0     0
SMALL
bcc


@<TRIPOS>ATOM
      1 C12          0.0000     0.0000     0.0000 ca         1 3K9      -0.094000
      2 C11          1.3830     0.0000     0.0000 ca         1 3K9      -0.089500
      3 C13         -0.6960     0.0010     1.1950 ca         1 3K9      -0.089500
      4 C10          2.0740     0.0000     1.1960 ca         1 3K9      -0.089000
      5 C14         -0.0090     0.0010     2.3940 ca         1 3K9      -0.089000
      6 C26         -4.1730     1.0070     7.8700 ca         1 3K9      -0.144000
      7 C27         -3.3030     1.2600     6.8300 ca         1 3K9      -0.021000
      8 C23         -6.4940     0.5180    11.3490 cc         1 3K9      -0.310300
      9 C5           2.7000     0.4280     5.6860 cc         1 3K9      -0.305300
     10 C19         -2.7520     2.2480     9.3650 ca         1 3K9      -0.133000
     11 C24         -5.6580     1.2360    12.2110 cc         1 3K9       0.413200
     12 C6           3.5960    -0.4870     5.1330 cc         1 3K9       0.392200
     13 C22         -5.9340     0.5330    10.1170 cd         1 3K9      -0.259300
     14 C9           1.3790     0.0010     2.3990 ca         1 3K9      -0.132200
     15 C20         -3.9000     1.5010     9.1400 ca         1 3K9      -0.074200
     16 C17         -2.1500     2.0020     7.0530 ca         1 3K9      -0.105400
     17 C18         -1.8730     2.4920     8.3260 ca         1 3K9       0.166900
     18 C4           1.7580     0.7240     4.7260 cd         1 3K9      -0.244200
     19 C29         -1.5150     3.3190     5.1950 cc         1 3K9      -0.261000
     20 C3           0.6140     1.6470     4.8750 cd         1 3K9       0.302900
     21 C30         -0.6900     3.6120     4.1540 cd         1 3K9       0.009900
     22 C2           0.4350     2.7710     3.9460 c          1 3K9       0.498000
     23 C32         -2.0880     5.4630     3.6330 c3         1 3K9       0.233700
     24 N25         -4.6330     1.6680    11.5220 nd         1 3K9      -0.653800
     25 N7           3.2310    -0.7400     3.9010 nd         1 3K9      -0.662800
     26 N15         -0.2640     1.4770     5.8420 nc         1 3K9      -0.459400
     27 N21         -4.7860     1.2430    10.1960 na         1 3K9       0.605300
     28 N8           2.0770    -0.0010     3.6120 na         1 3K9       0.647300
     29 N16         -1.2670     2.2580     5.9980 na         1 3K9       0.346100
     30 O1           1.2210     2.9740     3.0310 o          1 3K9      -0.565100
     31 O31         -0.9320     4.6750     3.3420 os         1 3K9      -0.251900
     32 F28         -0.7550     3.2190     8.5430 f          1 3K9      -0.111900
     33 H1          -0.5400    -0.0000    -0.9390 ha         1 3K9       0.102000
     34 H2           1.9240    -0.0000    -0.9380 ha         1 3K9       0.103000
     35 H3          -1.7790     0.0010     1.1920 ha         1 3K9       0.103000
     36 H4           3.1570    -0.0000     1.1970 ha         1 3K9       0.116500
     37 H5          -0.5540     0.0020     3.3300 ha         1 3K9       0.116500
     38 H7          -3.5170     0.8770     5.8390 ha         1 3K9       0.119000
     39 H8          -7.4230     0.0320    11.6210 ha         1 3K9       0.138000
     40 H9           2.7380     0.8310     6.6910 ha         1 3K9       0.137000
     41 H10         -2.5390     2.6300    10.3560 ha         1 3K9       0.158000
     42 H11         -5.8290     1.4030    13.2680 h4         1 3K9       0.009100
     43 H12          4.4530    -0.9150     5.6380 h4         1 3K9       0.001100
     44 H13         -6.3360     0.0650     9.2270 h4         1 3K9       0.151000
     45 H14         -2.3830     3.9400     5.3830 h4         1 3K9       0.156000
     46 H15         -2.9760     4.8490     3.5410 h1         1 3K9      -0.000967
     47 H16         -2.0190     5.8470     4.6440 h1         1 3K9      -0.000967
     48 H17         -2.1470     6.2900     2.9360 h1         1 3K9      -0.000967
     49 H6          -5.0710     0.4260     7.6960 ha         1 3K9       0.125000
@<TRIPOS>BOND
     1     1     2 ar  
     2     1     3 ar  
     3     1    33 1   
     4     2     4 ar  
     5     2    34 1   
     6     3     5 ar  
     7     3    35 1   
     8     4    14 ar  
     9     4    36 1   
    10     5    14 ar  
    11     5    37 1   
    12     6     7 ar  
    13     6    15 ar  
    14     6    49 1   
    15     7    16 ar  
    16     7    38 1   
    17     8    11 1   
    18     8    13 2   
    19     8    39 1   
    20     9    12 1   
    21     9    18 2   
    22     9    40 1   
    23    10    15 ar  
    24    10    17 ar  
    25    10    41 1   
    26    11    24 2   
    27    11    42 1   
    28    12    25 2   
    29    12    43 1   
    30    13    27 1   
    31    13    44 1   
    32    14    28 1   
    33    15    27 1   
    34    16    17 ar  
    35    16    29 1   
    36    17    32 1   
    37    18    20 1   
    38    18    28 1   
    39    19    21 2   
    40    19    29 1   
    41    19    45 1   
    42    20    22 1   
    43    20    26 2   
    44    21    22 1   
    45    21    31 1   
    46    22    30 2   
    47    23    31 1   
    48    23    46 1   
    49    23    47 1   
    50    23    48 1   
    51    24    27 1   
    52    25    28 1   
    53    26    29 1   
@<TRIPOS>SUBSTRUCTURE
     1 3K9         1 TEMP              0 ****  ****    0 ROOT
