@<TRIPOS>MOLECULE
molecule
   49    53     1     0     0
SMALL
bcc


@<TRIPOS>ATOM
      1 C12          0.0000     0.0000     0.0000 ca         1 3K9      -0.130000
      2 C11          1.3830     0.0000     0.0000 ca         1 3K9      -0.115000
      3 C13         -0.6960     0.0010     1.1950 ca         1 3K9      -0.115000
      4 C10          2.0740     0.0000     1.1960 ca         1 3K9      -0.124500
      5 C14         -0.0090     0.0010     2.3940 ca         1 3K9      -0.124500
      6 C26         -4.1730     1.0070     7.8700 ca         1 3K9      -0.179000
      7 C27         -3.3030     1.2600     6.8300 ca         1 3K9      -0.060000
      8 C23         -6.4940     0.5180    11.3490 cc         1 3K9      -0.333300
      9 C5           2.7000     0.4280     5.6860 cc         1 3K9      -0.310300
     10 C19         -2.7520     2.2480     9.3650 ca         1 3K9      -0.177000
     11 C24         -5.6580     1.2360    12.2110 cc         1 3K9       0.350200
     12 C6           3.5960    -0.4870     5.1330 cc         1 3K9       0.331200
     13 C22         -5.9340     0.5330    10.1170 cd         1 3K9      -0.106300
     14 C9           1.3790     0.0010     2.3990 ca         1 3K9       0.042800
     15 C20         -3.9000     1.5010     9.1400 ca         1 3K9       0.093800
     16 C17         -2.1500     2.0020     7.0530 ca         1 3K9       0.061600
     17 C18         -1.8730     2.4920     8.3260 ca         1 3K9       0.181900
     18 C4           1.7580     0.7240     4.7260 cd         1 3K9      -0.068200
     19 C29         -1.5150     3.3190     5.1950 cc         1 3K9      -0.076000
     20 C3           0.6140     1.6470     4.8750 cd         1 3K9       0.321900
     21 C30         -0.6900     3.6120     4.1540 cd         1 3K9      -0.015100
     22 C2           0.4350     2.7710     3.9460 c          1 3K9       0.455000
     23 C32         -2.0880     5.4630     3.6330 c3         1 3K9       0.119700
     24 N25         -4.6330     1.6680    11.5220 nd         1 3K9      -0.502800
     25 N7           3.2310    -0.7400     3.9010 nd         1 3K9      -0.495800
     26 N15         -0.2640     1.4770     5.8420 nc         1 3K9      -0.366400
     27 N21         -4.7860     1.2430    10.1960 na         1 3K9       0.138300
     28 N8           2.0770    -0.0010     3.6120 na         1 3K9       0.164300
     29 N16         -1.2670     2.2580     5.9980 na         1 3K9      -0.131900
     30 O1           1.2210     2.9740     3.0310 o          1 3K9      -0.512100
     31 O31         -0.9320     4.6750     3.3420 os         1 3K9      -0.278900
     32 F28         -0.7550     3.2190     8.5430 f          1 3K9      -0.114900
     33 H1          -0.5400    -0.0000    -0.9390 ha         1 3K9       0.130000
     34 H2           1.9240    -0.0000    -0.9380 ha         1 3K9       0.133000
     35 H3          -1.7790     0.0010     1.1920 ha         1 3K9       0.133000
     36 H4           3.1570    -0.0000     1.1970 ha         1 3K9       0.143500
     37 H5          -0.5540     0.0020     3.3300 ha         1 3K9       0.143500
     38 H7          -3.5170     0.8770     5.8390 ha         1 3K9       0.157000
     39 H8          -7.4230     0.0320    11.6210 ha         1 3K9       0.163000
     40 H9           2.7380     0.8310     6.6910 ha         1 3K9       0.162000
     41 H10         -2.5390     2.6300    10.3560 ha         1 3K9       0.185000
     42 H11         -5.8290     1.4030    13.2680 h4         1 3K9       0.057100
     43 H12          4.4530    -0.9150     5.6380 h4         1 3K9       0.050100
     44 H13         -6.3360     0.0650     9.2270 h4         1 3K9       0.176000
     45 H14         -2.3830     3.9400     5.3830 h4         1 3K9       0.167000
     46 H15         -2.9760     4.8490     3.5410 h1         1 3K9       0.042700
     47 H16         -2.0190     5.8470     4.6440 h1         1 3K9       0.042700
     48 H17         -2.1470     6.2900     2.9360 h1         1 3K9       0.042700
     49 H6          -5.0710     0.4260     7.6960 ha         1 3K9       0.149000
@<TRIPOS>BOND
     1    11     8 1   
     2    11    24 2   
     3     8    13 2   
     4    24    27 1   
     5    13    27 1   
     6    27    15 1   
     7    10    15 ar  
     8    10    17 ar  
     9    15     6 ar  
    10    32    17 1   
    11    17    16 ar  
    12     6     7 ar  
    13    16     7 ar  
    14    16    29 1   
    15    23    31 1   
    16    19    29 1   
    17    19    21 2   
    18    29    26 1   
    19    31    21 1   
    20    21    22 1   
    21    26    20 2   
    22     1     3 ar  
    23     1     2 ar  
    24     3     5 ar  
    25     2     4 ar  
    26    22    20 1   
    27    22    30 2   
    28    20    18 1   
    29     5    14 ar  
    30     4    14 ar  
    31    14    28 1   
    32    18    28 1   
    33    18     9 2   
    34    28    25 1   
    35     9    12 1   
    36    25    12 2   
    37     1    33 1   
    38     2    34 1   
    39     3    35 1   
    40     4    36 1   
    41     5    37 1   
    42     6    49 1   
    43     7    38 1   
    44     8    39 1   
    45     9    40 1   
    46    10    41 1   
    47    11    42 1   
    48    12    43 1   
    49    13    44 1   
    50    19    45 1   
    51    23    46 1   
    52    23    47 1   
    53    23    48 1   
@<TRIPOS>SUBSTRUCTURE
     1 3K9         1 TEMP              0 ****  ****    0 ROOT
