@<TRIPOS>MOLECULE
3KA
   31    32     1     0     0
SMALL
bcc


@<TRIPOS>ATOM
      1 O4          0.3320   -0.1070   -0.8760 o         1 3KA     -0.685500
      2 C4          1.5670   -0.0720   -0.6880 c         1 3KA      0.718700
      3 N3          2.0190   -0.0580    0.6490 n         1 3KA     -0.597500
      4 C2          3.3820   -0.0310    0.9880 c         1 3KA      0.792500
      5 O2          3.7070   -0.0540    2.2030 o         1 3KA     -0.703500
      6 C5          2.6020   -0.0500   -1.7080 cc        1 3KA     -0.381200
      7 C6          3.9270   -0.0100   -1.3730 cd        1 3KA      0.094600
      8 N1          4.3370    0.0160   -0.0500 n         1 3KA     -0.375000
      9 C1'         5.7590   -0.0160    0.3440 c3        1 3KA      0.308500
     10 O4'         6.5870   -0.3410   -0.7580 os        1 3KA     -0.389600
     11 C2'         6.2920    1.3060    0.9500 c3        1 3KA     -0.138400
     12 C3'         7.4930    1.6880    0.0680 c3        1 3KA      0.111100
     13 O3'         8.7050    1.4530    0.7660 oh        1 3KA     -0.624800
     14 C4'         7.3270    0.8250   -1.1950 c3        1 3KA      0.032100
     15 C5'         6.6000    1.6140   -2.3100 c3        1 3KA      0.227400
     16 O5'         6.1710    0.8080   -3.3220 os        1 3KA     -0.554200
     17 P           7.2990    0.8170   -4.6920 p5        1 3KA      1.311900
     18 OP1         7.2150    2.2580   -5.1040 o         1 3KA     -0.922167
     19 OP2         8.5380    0.4480   -3.9160 o         1 3KA     -0.922167
     20 O1          6.7070   -0.2100   -5.6070 o         1 3KA     -0.922167
     21 H1          1.3660   -0.0780    1.3970 hn        1 3KA      0.323500
     22 H2          2.2830   -0.0570   -2.7570 ha        1 3KA      0.183000
     23 H3          4.7480    0.0050   -2.1550 h4        1 3KA      0.293000
     24 H4          5.8560   -0.8700    1.0800 h2        1 3KA      0.065700
     25 H5          6.6040    1.1320    2.0070 hc        1 3KA      0.057700
     26 H6          5.5260    2.1160    0.9350 hc        1 3KA      0.057700
     27 H7          7.5010    2.7840   -0.1730 h1        1 3KA      0.080700
     28 H8          9.0020    0.5660    0.5290 ho        1 3KA      0.405000
     29 H9          8.2810    0.4000   -1.6260 h1        1 3KA      0.165700
     30 H10         7.3230    2.3940   -2.6880 h1        1 3KA     -0.005300
     31 H11         5.7130    2.1300   -1.8270 h1        1 3KA     -0.005300
@<TRIPOS>BOND
     1    1    2 2   
     2    2    3 1   
     3    2    6 1   
     4    3    4 1   
     5    3   21 1   
     6    4    5 2   
     7    4    8 1   
     8    6    7 2   
     9    6   22 1   
    10    7    8 1   
    11    7   23 1   
    12    8    9 1   
    13    9   10 1   
    14    9   11 1   
    15    9   24 1   
    16   10   14 1   
    17   11   12 1   
    18   11   25 1   
    19   11   26 1   
    20   12   13 1   
    21   12   14 1   
    22   12   27 1   
    23   13   28 1   
    24   14   15 1   
    25   14   29 1   
    26   15   16 1   
    27   15   30 1   
    28   15   31 1   
    29   16   17 1   
    30   17   18 1   
    31   17   19 1   
    32   17   20 1   
@<TRIPOS>SUBSTRUCTURE
     1 3KA         1 TEMP              0 ****  ****    0 ROOT
