@<TRIPOS>MOLECULE
molecule
   45    48     1     0     0
SMALL
bcc


@<TRIPOS>ATOM
      1 C26          0.0000     0.0000     0.0000 ca         1 3KB      -0.136000
      2 C25          1.3830     0.0000     0.0000 ca         1 3KB      -0.119500
      3 C27         -0.6950    -0.0010     1.1960 ca         1 3KB      -0.119500
      4 C14         -0.5680     4.7140     0.5600 ca         1 3KB      -0.111000
      5 C13         -1.5160     5.7170     0.6640 ca         1 3KB      -0.094000
      6 C24          2.0750     0.0000     1.1960 ca         1 3KB      -0.126000
      7 C28         -0.0080    -0.0010     2.3950 ca         1 3KB      -0.126000
      8 C15         -0.2850     3.9130     1.6480 ca         1 3KB      -0.096000
      9 C19          2.7100     0.4360     5.6810 cc         1 3KB      -0.289300
     10 C7          -1.9040     5.1220     2.9510 ca         1 3KB      -0.115000
     11 C20          3.5900    -0.4990     5.1370 cc         1 3KB       0.332200
     12 C8          -2.1820     5.9190     1.8590 ca         1 3KB      -0.157300
     13 C23          1.3800    -0.0010     2.3980 ca         1 3KB       0.038800
     14 C6          -0.9490     4.1170     2.8500 ca         1 3KB       0.142600
     15 C18          1.7720     0.7380     4.7190 cd         1 3KB      -0.083200
     16 C4          -1.4320     3.4380     5.0620 cc         1 3KB      -0.091000
     17 C17          0.6430     1.6800     4.8600 cd         1 3KB       0.337900
     18 C3          -1.1980     2.6750     6.1640 cd         1 3KB      -0.007100
     19 C29         -0.1280     1.7430     6.1090 c          1 3KB       0.458000
     20 C1          -3.0170     3.7640     7.2410 c3         1 3KB       0.118700
     21 N21          3.2210    -0.7570     3.9070 nd         1 3KB      -0.493800
     22 N16          0.3100     2.4790     3.8670 nc         1 3KB      -0.389400
     23 N22          2.0790    -0.0010     3.6120 na         1 3KB       0.151300
     24 N5          -0.6650     3.3080     3.9550 na         1 3KB      -0.112900
     25 O30          0.1410     1.0240     7.0600 o          1 3KB      -0.508100
     26 O2          -1.9640     2.8000     7.2810 os         1 3KB      -0.278900
     27 F10         -2.8270     7.9200     2.9620 f          1 3KB      -0.220633
     28 F11         -3.3190     7.6800     0.7440 f          1 3KB      -0.220633
     29 F12         -4.4520     6.4540     2.3040 f          1 3KB      -0.220633
     30 H1          -0.5410     0.0000    -0.9390 ha         1 3KB       0.132000
     31 H2           1.9240     0.0010    -0.9380 ha         1 3KB       0.136000
     32 H3          -1.7780    -0.0010     1.1930 ha         1 3KB       0.136000
     33 H4          -0.0490     4.5560    -0.3780 ha         1 3KB       0.150000
     34 H5          -1.7370     6.3440    -0.1910 ha         1 3KB       0.157000
     35 H6           3.1580     0.0000     1.1960 ha         1 3KB       0.147000
     36 H7          -0.5520    -0.0020     3.3320 ha         1 3KB       0.147000
     37 H8           0.4590     3.1290     1.5650 ha         1 3KB       0.173000
     38 H9           2.7550     0.8480     6.6820 ha         1 3KB       0.173000
     39 H10         -2.4250     5.2830     3.8870 ha         1 3KB       0.148000
     40 H11          4.4420    -0.9360     5.6450 h4         1 3KB       0.053100
     41 H12         -2.2400     4.1590     5.0720 h4         1 3KB       0.173000
     42 H13         -2.5990     4.7490     7.0690 h1         1 3KB       0.045367
     43 H14         -3.7030     3.5180     6.4390 h1         1 3KB       0.045367
     44 H15         -3.5490     3.7580     8.1850 h1         1 3KB       0.045367
     45 C9          -3.2130     7.0130     1.9690 c3         1 3KB       0.675200
@<TRIPOS>BOND
     1    27    45 1   
     2    29    45 1   
     3    45    28 1   
     4    45    12 1   
     5     5    12 ar  
     6     5     4 ar  
     7    12    10 ar  
     8     4     8 ar  
     9    10    14 ar  
    10     8    14 ar  
    11    14    24 1   
    12    20    26 1   
    13    16    24 1   
    14    16    18 2   
    15    24    22 1   
    16     1     3 ar  
    17     1     2 ar  
    18    18    26 1   
    19    18    19 1   
    20    22    17 2   
    21     3     7 ar  
    22     2     6 ar  
    23     7    13 ar  
    24    17    19 1   
    25    17    15 1   
    26    19    25 2   
    27     6    13 ar  
    28    13    23 1   
    29    15    23 1   
    30    15     9 2   
    31    23    21 1   
    32     9    11 1   
    33    21    11 2   
    34     1    30 1   
    35     2    31 1   
    36     3    32 1   
    37     4    33 1   
    38     5    34 1   
    39     6    35 1   
    40     7    36 1   
    41     8    37 1   
    42     9    38 1   
    43    10    39 1   
    44    11    40 1   
    45    16    41 1   
    46    20    42 1   
    47    20    43 1   
    48    20    44 1   
@<TRIPOS>SUBSTRUCTURE
     1 3KB         1 TEMP              0 ****  ****    0 ROOT
