@<TRIPOS>MOLECULE
3KC
   37    41     1     0     0
SMALL
bcc


@<TRIPOS>ATOM
      1 C4           0.0000     0.0000     0.0000 ca         1 3KC      -0.040000
      2 C5           1.3980     0.0000     0.0000 ca         1 3KC      -0.173500
      3 C6           2.0930     0.0000     1.2140 ca         1 3KC      -0.007600
      4 C8           1.3970     0.0020     2.4040 ca         1 3KC      -0.147000
      5 C13          2.4730    -3.2570    -4.8080 ca         1 3KC      -0.100000
      6 C15          3.7910    -1.3140    -5.2990 ca         1 3KC      -0.119000
      7 C17          3.9640     0.6020    -3.8880 cp         1 3KC       0.064000
      8 C21          4.3320     2.6860    -2.6680 ca         1 3KC       0.244800
      9 C24          3.0730     2.3190    -0.8260 cc         1 3KC      -0.257200
     10 C26          3.7460     1.4270    -2.7780 ca         1 3KC      -0.192100
     11 C2           0.0080     0.0020     2.3980 ca         1 3KC       0.139100
     12 C3          -0.6870     0.0070     1.1930 ca         1 3KC      -0.142000
     13 Cl7          3.8290    -0.0010     1.2210 cl         1 3KC      -0.013400
     14 C9           2.1380    -0.0020    -1.2770 cd         1 3KC       0.314300
     15 N10          2.0130    -1.0810    -2.0230 nc         1 3KC      -0.283000
     16 C11          2.5260    -1.4410    -3.2280 ca         1 3KC       0.348600
     17 C12          2.0700    -2.7070    -3.6100 ca         1 3KC      -0.145300
     18 C14          3.3310    -2.5690    -5.6500 ca         1 3KC      -0.097000
     19 C16          3.3930    -0.7420    -4.1000 cp         1 3KC      -0.108300
     20 C18          4.7930     1.0810    -4.8900 ca         1 3KC      -0.286300
     21 C19          5.3490     2.3450    -4.7230 ca         1 3KC       0.430200
     22 N20          5.1190     3.0930    -3.6600 nb         1 3KC      -0.584000
     23 N22          3.9020     3.2040    -1.4700 na         1 3KC       0.296000
     24 C25          2.9330     1.2040    -1.5750 cd         1 3KC      -0.250000
     25 H4          -0.5420     0.0020    -0.9380 ha         1 3KC       0.116000
     26 H8           1.9340     0.0020     3.3450 ha         1 3KC       0.126000
     27 H13          2.1170    -4.2400    -5.0930 ha         1 3KC       0.102000
     28 H15          4.4620    -0.7770    -5.9590 ha         1 3KC       0.129000
     29 H24          2.6030     2.4900     0.1350 h4         1 3KC       0.155000
     30 HO1         -0.7970    -0.8840     3.8660 ho         1 3KC       0.406000
     31 H3          -1.7700     0.0070     1.1940 ha         1 3KC       0.118000
     32 H12          1.3980    -3.2570    -2.9620 ha         1 3KC       0.121000
     33 H14          3.6390    -3.0140    -6.5890 ha         1 3KC       0.102000
     34 H18          5.0010     0.4910    -5.7750 ha         1 3KC       0.140000
     35 H19          5.9980     2.7320    -5.4990 h4         1 3KC      -0.024900
     36 HN22         4.1580     4.1040    -1.1150 hn         1 3KC       0.119700
     37 O1          -0.6740     0.0040     3.5720 oh         1 3KC      -0.500100
@<TRIPOS>BOND
     1     1     2 ar  
     2     1    12 ar  
     3     1    25 1   
     4     2     3 ar  
     5     2    14 1   
     6     3     4 ar  
     7     3    13 1   
     8     4    11 ar  
     9     4    26 1   
    10     5    17 ar  
    11     5    18 ar  
    12     5    27 1   
    13     6    18 ar  
    14     6    19 ar  
    15     6    28 1   
    16     7    10 ar  
    17     7    19 1   
    18     7    20 ar  
    19     8    10 ar  
    20     8    22 ar  
    21     8    23 1   
    22     9    23 1   
    23     9    24 2   
    24     9    29 1   
    25    10    24 1   
    26    11    12 ar  
    27    11    37 1   
    28    12    31 1   
    29    14    15 2   
    30    14    24 1   
    31    15    16 1   
    32    16    17 ar  
    33    16    19 ar  
    34    17    32 1   
    35    18    33 1   
    36    20    21 ar  
    37    20    34 1   
    38    21    22 ar  
    39    21    35 1   
    40    23    36 1   
    41    30    37 1   
@<TRIPOS>SUBSTRUCTURE
     1 3KC         1 TEMP              0 ****  ****    0 ROOT
