@<TRIPOS>MOLECULE
molecule
   37    41     1     0     0
SMALL
bcc


@<TRIPOS>ATOM
      1 C4           0.0000     0.0000     0.0000 ca         1 3KC      -0.073000
      2 C5           1.3980     0.0000     0.0000 ca         1 3KC      -0.157500
      3 C6           2.0930     0.0000     1.2140 ca         1 3KC       0.048400
      4 C8           1.3970     0.0020     2.4040 ca         1 3KC      -0.156000
      5 C13          2.4730    -3.2570    -4.8080 ca         1 3KC      -0.127000
      6 C15          3.7910    -1.3140    -5.2990 ca         1 3KC      -0.126000
      7 C17          3.9640     0.6020    -3.8880 cp         1 3KC       0.054000
      8 C21          4.3320     2.6860    -2.6680 ca         1 3KC       0.479800
      9 C24          3.0730     2.3190    -0.8260 cc         1 3KC      -0.071200
     10 C26          3.7460     1.4270    -2.7780 ca         1 3KC      -0.194100
     11 C2           0.0080     0.0020     2.3980 ca         1 3KC       0.121100
     12 C3          -0.6870     0.0070     1.1930 ca         1 3KC      -0.156000
     13 Cl7          3.8290    -0.0010     1.2210 cl         1 3KC      -0.089400
     14 C9           2.1380    -0.0020    -1.2770 cd         1 3KC       0.368300
     15 N10          2.0130    -1.0810    -2.0230 nc         1 3KC      -0.414000
     16 C11          2.5260    -1.4410    -3.2280 ca         1 3KC       0.401600
     17 C12          2.0700    -2.7070    -3.6100 ca         1 3KC      -0.162300
     18 C14          3.3310    -2.5690    -5.6500 ca         1 3KC      -0.129000
     19 C16          3.3930    -0.7420    -4.1000 cp         1 3KC      -0.123300
     20 C18          4.7930     1.0810    -4.8900 ca         1 3KC      -0.298300
     21 C19          5.3490     2.3450    -4.7230 ca         1 3KC       0.456200
     22 N20          5.1190     3.0930    -3.6600 nb         1 3KC      -0.716000
     23 N22          3.9020     3.2040    -1.4700 na         1 3KC      -0.253000
     24 C25          2.9330     1.2040    -1.5750 cd         1 3KC      -0.273000
     25 H4          -0.5420     0.0020    -0.9380 ha         1 3KC       0.153000
     26 H8           1.9340     0.0020     3.3450 ha         1 3KC       0.156000
     27 H13          2.1170    -4.2400    -5.0930 ha         1 3KC       0.132000
     28 H15          4.4620    -0.7770    -5.9590 ha         1 3KC       0.145000
     29 H24          2.6030     2.4900     0.1350 h4         1 3KC       0.182000
     30 HO1         -0.7970    -0.8840     3.8660 ho         1 3KC       0.425000
     31 H3          -1.7700     0.0070     1.1940 ha         1 3KC       0.148000
     32 H12          1.3980    -3.2570    -2.9620 ha         1 3KC       0.151000
     33 H14          3.6390    -3.0140    -6.5890 ha         1 3KC       0.131000
     34 H18          5.0010     0.4910    -5.7750 ha         1 3KC       0.153000
     35 H19          5.9980     2.7320    -5.4990 h4         1 3KC       0.023100
     36 HN22         4.1580     4.1040    -1.1150 hn         1 3KC       0.307700
     37 O1          -0.6740     0.0040     3.5720 oh         1 3KC      -0.519100
@<TRIPOS>BOND
     1    12     1 ar
     2     1     2 ar
     3     1    25 1
     4     2    14 1
     5     2     3 ar
     6     4     3 ar
     7     3    13 1
     8    11     4 ar
     9     4    26 1
    10    17     5 ar
    11     5    18 ar
    12     5    27 1
    13    19     6 ar
    14     6    18 ar
    15     6    28 1
    16    10     7 ar
    17     7    20 ar
    18     7    19 1
    19    23     8 1
    20     8    22 ar
    21     8    10 ar
    22    23     9 1
    23     9    24 2
    24     9    29 1
    25    24    10 1
    26    37    11 1
    27    37    30 1
    28    12    11 ar
    29    12    31 1
    30    24    14 1
    31    14    15 2
    32    15    16 1
    33    16    19 ar
    34    16    17 ar
    35    17    32 1
    36    18    33 1
    37    21    20 ar
    38    20    34 1
    39    22    21 ar
    40    21    35 1
    41    23    36 1
@<TRIPOS>SUBSTRUCTURE
     1 3KC         1 TEMP              0 ****  ****    0 ROOT
