@<TRIPOS>MOLECULE
3KE
   53    56     1     0     0
SMALL
bcc


@<TRIPOS>ATOM
      1 C3           0.0000     0.0000     0.0000 ca         1 3KE      -0.062000
      2 C22          1.3940     0.0000     0.0000 ca         1 3KE      -0.141500
      3 C7           2.1110    -0.0010     3.6940 c          1 3KE       0.582700
      4 N2           1.4280    -0.0010     4.8560 ns         1 3KE      -0.180900
      5 C11          2.1500    -0.0020     6.1310 c3         1 3KE       0.119300
      6 C9          -0.6540    -0.0010     9.3590 ca         1 3KE      -0.089600
      7 C12         -0.1950    -1.2090     8.8290 ca         1 3KE      -0.077500
      8 C14          0.7090    -1.2010     7.7880 ca         1 3KE      -0.122500
      9 C20          1.1620    -0.0010     7.2680 ca         1 3KE      -0.171300
     10 C16          0.7110     1.1980     7.7890 ca         1 3KE      -0.122500
     11 C18         -0.1930     1.2060     8.8300 ca         1 3KE      -0.077500
     12 C2          -0.6950     0.0050     1.1930 ca         1 3KE      -0.121000
     13 C23          2.0870     0.0000     1.2040 ca         1 3KE      -0.007000
     14 C8           1.3820     0.0000     2.4080 ca         1 3KE      -0.153600
     15 C6          -0.0140     0.0100     2.3940 ca         1 3KE      -0.069000
     16 O3           3.3260    -0.0010     3.7040 o          1 3KE      -0.663100
     17 O4          -2.0680     1.1650    10.9800 o          1 3KE      -0.881800
     18 O5          -2.0300    -1.0530    10.9250 o          1 3KE      -0.881800
     19 N1           1.6160    -0.0010    -2.4960 nc         1 3KE      -0.699800
     20 N5           2.5880    -0.0020    -3.3430 na         1 3KE       0.720900
     21 N3           3.7080    -0.0020    -2.7070 nc         1 3KE      -0.370800
     22 N4           3.4690    -0.0010    -1.4400 nd         1 3KE      -0.339000
     23 C5           2.1380    -0.0010    -1.2860 cd         1 3KE       0.576500
     24 C21          2.2980     4.0250    -6.2220 ca         1 3KE       0.167100
     25 C15          3.5160     3.3700    -6.1110 ca         1 3KE      -0.179500
     26 C10          3.5590     2.0680    -5.6510 ca         1 3KE      -0.024500
     27 C4           2.3910     1.4180    -5.3010 ca         1 3KE      -0.195300
     28 C19          1.1750     2.0680    -5.4120 ca         1 3KE      -0.024500
     29 C17          1.1260     3.3690    -5.8710 ca         1 3KE      -0.179500
     30 C13          0.9640     5.9190    -6.7580 c3         1 3KE       0.243700
     31 H3          -0.5400    -0.0020    -0.9390 ha         1 3KE       0.112000
     32 HN2          0.4270    -0.0020     4.8480 hn         1 3KE       0.184500
     33 H11          2.7740     0.8820     6.1940 h1         1 3KE       0.021700
     34 H11A         2.7710    -0.8870     6.1930 h1         1 3KE       0.021700
     35 H12         -0.5480    -2.1490     9.2350 ha         1 3KE       0.126500
     36 H14          1.0660    -2.1370     7.3760 ha         1 3KE       0.089000
     37 H16          1.0690     2.1340     7.3770 ha         1 3KE       0.089000
     38 H18         -0.5450     2.1470     9.2370 ha         1 3KE       0.126500
     39 H2          -1.7780     0.0090     1.1870 ha         1 3KE       0.106000
     40 H23          3.1700     0.0000     1.2090 ha         1 3KE       0.146000
     41 H6          -0.5640     0.0140     3.3270 ha         1 3KE       0.112000
     42 H1           1.5260    -0.5140    -5.0720 h1         1 3KE       0.046700
     43 H1A          3.2860    -0.5140    -5.2490 h1         1 3KE       0.046700
     44 H15          4.4320     3.8790    -6.3840 ha         1 3KE       0.122000
     45 H10          4.5100     1.5560    -5.5640 ha         1 3KE       0.112500
     46 H19          0.2610     1.5560    -5.1380 ha         1 3KE       0.112500
     47 H17          0.1740     3.8780    -5.9570 ha         1 3KE       0.122000
     48 H13          0.5050     5.9390    -5.7770 h1         1 3KE      -0.001300
     49 H13A         1.1280     6.9340    -7.1010 h1         1 3KE      -0.001300
     50 H13B         0.3100     5.4050    -7.4530 h1         1 3KE      -0.001300
     51 C1           2.4420    -0.0030    -4.8010 c3         1 3KE       0.063600
     52 C24         -1.6280    -0.0010    10.4710 c          1 3KE       0.971200
     53 O1           2.2520     5.3070    -6.6690 os         1 3KE      -0.304900
@<TRIPOS>BOND
     1     1     2 ar  
     2     1    12 ar  
     3     1    31 1   
     4     2    13 ar  
     5     2    23 1   
     6     3     4 1   
     7     3    14 1   
     8     3    16 2   
     9     4     5 1   
    10     4    32 1   
    11     5     9 1   
    12     5    33 1   
    13     5    34 1   
    14     6     7 ar  
    15     6    11 ar  
    16     6    52 1   
    17     7     8 ar  
    18     7    35 1   
    19     8     9 ar  
    20     8    36 1   
    21     9    10 ar  
    22    10    11 ar  
    23    10    37 1   
    24    11    38 1   
    25    12    15 ar  
    26    12    39 1   
    27    13    14 ar  
    28    13    40 1   
    29    14    15 ar  
    30    15    41 1   
    31    17    52 1   
    32    18    52 1   
    33    19    20 1   
    34    19    23 2   
    35    20    21 1   
    36    20    51 1   
    37    21    22 2   
    38    22    23 1   
    39    24    25 ar  
    40    24    29 ar  
    41    24    53 1   
    42    25    26 ar  
    43    25    44 1   
    44    26    27 ar  
    45    26    45 1   
    46    27    28 ar  
    47    27    51 1   
    48    28    29 ar  
    49    28    46 1   
    50    29    47 1   
    51    30    48 1   
    52    30    49 1   
    53    30    50 1   
    54    30    53 1   
    55    42    51 1   
    56    43    51 1   
@<TRIPOS>SUBSTRUCTURE
     1 3KE         1 TEMP              0 ****  ****    0 ROOT
