@<TRIPOS>MOLECULE
molecule
   53    56     1     0     0
SMALL
bcc


@<TRIPOS>ATOM
      1 C3           0.0000     0.0000     0.0000 ca         1 3KE      -0.086000
      2 C22          1.3940     0.0000     0.0000 ca         1 3KE      -0.129500
      3 C7           2.1110    -0.0010     3.6940 c          1 3KE       0.664700
      4 N2           1.4280    -0.0010     4.8560 ns         1 3KE      -0.568900
      5 C11          2.1500    -0.0020     6.1310 c3         1 3KE       0.166300
      6 C9          -0.6540    -0.0010     9.3590 ca         1 3KE      -0.089600
      7 C12         -0.1950    -1.2090     8.8290 ca         1 3KE      -0.106500
      8 C14          0.7090    -1.2010     7.7880 ca         1 3KE      -0.143500
      9 C20          1.1620    -0.0010     7.2680 ca         1 3KE      -0.158300
     10 C16          0.7110     1.1980     7.7890 ca         1 3KE      -0.143500
     11 C18         -0.1930     1.2060     8.8300 ca         1 3KE      -0.106500
     12 C2          -0.6950     0.0050     1.1930 ca         1 3KE      -0.147000
     13 C23          2.0870     0.0000     1.2040 ca         1 3KE      -0.037000
     14 C8           1.3820     0.0000     2.4080 ca         1 3KE      -0.145600
     15 C6          -0.0140     0.0100     2.3940 ca         1 3KE      -0.089000
     16 O3           3.3260    -0.0010     3.7040 o          1 3KE      -0.619100
     17 O4          -2.0680     1.1650    10.9800 o          1 3KE      -0.833800
     18 O5          -2.0300    -1.0530    10.9250 o          1 3KE      -0.833800
     19 N1           1.6160    -0.0010    -2.4960 nc         1 3KE      -0.579800
     20 N5           2.5880    -0.0020    -3.3430 na         1 3KE       0.301900
     21 N3           3.7080    -0.0020    -2.7070 nc         1 3KE      -0.208800
     22 N4           3.4690    -0.0010    -1.4400 nd         1 3KE      -0.379000
     23 C5           2.1380    -0.0010    -1.2860 cd         1 3KE       0.577500
     24 C21          2.2980     4.0250    -6.2220 ca         1 3KE       0.156100
     25 C15          3.5160     3.3700    -6.1110 ca         1 3KE      -0.194000
     26 C10          3.5590     2.0680    -5.6510 ca         1 3KE      -0.058500
     27 C4           2.3910     1.4180    -5.3010 ca         1 3KE      -0.175300
     28 C19          1.1750     2.0680    -5.4120 ca         1 3KE      -0.058500
     29 C17          1.1260     3.3690    -5.8710 ca         1 3KE      -0.194000
     30 C13          0.9640     5.9190    -6.7580 c3         1 3KE       0.126700
     31 H3          -0.5400    -0.0020    -0.9390 ha         1 3KE       0.141000
     32 HN2          0.4270    -0.0020     4.8480 hn         1 3KE       0.320500
     33 H11          2.7740     0.8820     6.1940 h1         1 3KE       0.049700
     34 H11A         2.7710    -0.8870     6.1930 h1         1 3KE       0.049700
     35 H12         -0.5480    -2.1490     9.2350 ha         1 3KE       0.152500
     36 H14          1.0660    -2.1370     7.3760 ha         1 3KE       0.110000
     37 H16          1.0690     2.1340     7.3770 ha         1 3KE       0.110000
     38 H18         -0.5450     2.1470     9.2370 ha         1 3KE       0.152500
     39 H2          -1.7780     0.0090     1.1870 ha         1 3KE       0.135000
     40 H23          3.1700     0.0000     1.2090 ha         1 3KE       0.176000
     41 H6          -0.5640     0.0140     3.3270 ha         1 3KE       0.139000
     42 H1           1.5260    -0.5140    -5.0720 h1         1 3KE       0.082200
     43 H1A          3.2860    -0.5140    -5.2490 h1         1 3KE       0.082200
     44 H15          4.4320     3.8790    -6.3840 ha         1 3KE       0.143500
     45 H10          4.5100     1.5560    -5.5640 ha         1 3KE       0.142000
     46 H19          0.2610     1.5560    -5.1380 ha         1 3KE       0.142000
     47 H17          0.1740     3.8780    -5.9570 ha         1 3KE       0.143500
     48 H13          0.5050     5.9390    -5.7770 h1         1 3KE       0.043367
     49 H13A         1.1280     6.9340    -7.1010 h1         1 3KE       0.043367
     50 H13B         0.3100     5.4050    -7.4530 h1         1 3KE       0.043367
     51 C1           2.4420    -0.0030    -4.8010 c3         1 3KE       0.134600
     52 C24         -1.6280    -0.0010    10.4710 c          1 3KE       0.880200
     53 O1           2.2520     5.3070    -6.6690 os         1 3KE      -0.324900
@<TRIPOS>BOND
     1    12     1 ar  
     2     1     2 ar  
     3     1    31 1   
     4    13     2 ar  
     5     2    23 1   
     6     4     3 1   
     7     3    14 1   
     8     3    16 2   
     9     5     4 1   
    10     4    32 1   
    11     9     5 1   
    12     5    33 1   
    13     5    34 1   
    14    52     6 1   
    15     6     7 ar  
    16     6    11 ar  
    17     7     8 ar  
    18     7    35 1   
    19     8     9 ar  
    20     8    36 1   
    21    10     9 ar  
    22    11    10 ar  
    23    10    37 1   
    24    11    38 1   
    25    15    12 ar  
    26    12    39 1   
    27    14    13 ar  
    28    13    40 1   
    29    15    14 ar  
    30    15    41 1   
    31    18    52 1   
    32    17    52 1   
    33    19    23 2   
    34    19    20 1   
    35    51    20 1   
    36    20    21 1   
    37    22    21 2   
    38    23    22 1   
    39    27    51 1   
    40    51    42 1   
    41    51    43 1   
    42    53    24 1   
    43    29    24 ar  
    44    24    25 ar  
    45    25    26 ar  
    46    25    44 1   
    47    27    26 ar  
    48    26    45 1   
    49    28    27 ar  
    50    29    28 ar  
    51    28    46 1   
    52    29    47 1   
    53    53    30 1   
    54    30    48 1   
    55    30    49 1   
    56    30    50 1   
@<TRIPOS>SUBSTRUCTURE
     1 3KE         1 TEMP              0 ****  ****    0 ROOT
