@<TRIPOS>MOLECULE
molecule
   35    38     1     0     0
SMALL
bcc


@<TRIPOS>ATOM
      1 C1           0.0000     0.0000     0.0000 ca         1 3KF       0.095100
      2 C2           1.3930     0.0000     0.0000 ca         1 3KF      -0.016900
      3 C3           2.0990     0.0000     1.1980 ca         1 3KF       0.200100
      4 C4           1.4030     0.0010     2.4100 ca         1 3KF      -0.165600
      5 C5          -0.0110     0.0110     2.3960 ca         1 3KF      -0.001800
      6 C6          -0.7030     0.0060     1.2000 ca         1 3KF      -0.132000
      7 C7          -0.7010     0.0350     3.7090 ce         1 3KF      -0.083400
      8 C8          -1.8960     0.5850     3.8060 c2         1 3KF      -0.147200
      9 C9          -2.6010     0.6750     5.1350 c3         1 3KF       0.173300
     10 O1           1.8280    -0.0010    -1.2960 os         1 3KF      -0.317900
     11 C10         -1.5320     0.8520     6.2210 c3         1 3KF       0.151100
     12 C11         -0.6240    -0.3770     6.2080 c3         1 3KF       0.133100
     13 C12          0.0310    -0.5790     4.8630 c3         1 3KF       0.136900
     14 C13          2.1030     0.0030     3.7010 c          1 3KF       0.729100
     15 O3          -1.4020    -1.5330     6.5250 oh         1 3KF      -0.588800
     16 O4          -2.1590     0.9730     7.5000 oh         1 3KF      -0.587800
     17 O5          -3.4850     1.7980     5.1380 oh         1 3KF      -0.596800
     18 O6           3.4550    -0.0020     1.1910 oh         1 3KF      -0.481100
     19 C            0.6950    -0.4190    -2.0800 c3         1 3KF       0.332200
     20 N            1.4340    -0.1900     4.8540 ns         1 3KF      -0.581900
     21 O           -0.4370    -0.0010    -1.2920 os         1 3KF      -0.321900
     22 H1          -1.7800     0.1200     1.1960 ha         1 3KF       0.152000
     23 H2          -2.3770     0.9770     2.9190 ha         1 3KF       0.145000
     24 H3          -3.1580    -0.2370     5.3160 h1         1 3KF       0.079700
     25 H4          -0.9450     1.7380     6.0120 h1         1 3KF       0.059700
     26 H5           0.1470    -0.2510     6.9580 h1         1 3KF       0.045700
     27 H6           0.0180    -1.6480     4.6870 h1         1 3KF       0.071700
     28 H7          -0.9770    -2.0200     7.2110 ho         1 3KF       0.411000
     29 H8          -1.8770     1.7720     7.9140 ho         1 3KF       0.408000
     30 H9          -4.3630     1.5080     4.9590 ho         1 3KF       0.409000
     31 H10          3.7690     0.8240     0.8610 ho         1 3KF       0.433000
     32 H11          0.6940     0.0810    -3.0410 h2         1 3KF       0.074200
     33 H12          0.6950    -1.4960    -2.2030 h2         1 3KF       0.074200
     34 H13          1.9120    -0.0620     5.7240 hn         1 3KF       0.329500
     35 O2           3.3060     0.1820     3.7290 o          1 3KF      -0.619500
@<TRIPOS>BOND
     1    35    14 2
     2    18     3 1
     3    17     9 1
     4    14    20 1
     5    14     4 1
     6     3     4 ar
     7     3     2 ar
     8    20    13 1
     9     4     5 ar
    10     2    10 1
    11     2     1 ar
    12    12    15 1
    13    12    13 1
    14    12    11 1
    15    10    19 1
    16     5     7 1
    17     5     6 ar
    18     8     7 2
    19     8     9 1
    20     1     6 ar
    21     1    21 1
    22     7    13 1
    23     9    11 1
    24    19    21 1
    25    11    16 1
    26     6    22 1
    27     8    23 1
    28     9    24 1
    29    11    25 1
    30    12    26 1
    31    13    27 1
    32    15    28 1
    33    16    29 1
    34    17    30 1
    35    18    31 1
    36    19    32 1
    37    19    33 1
    38    20    34 1
@<TRIPOS>SUBSTRUCTURE
     1 3KF         1 TEMP              0 ****  ****    0 ROOT
