@<TRIPOS>MOLECULE
molecule
   41    44     1     0     0
SMALL
bcc


@<TRIPOS>ATOM
      1 C12          0.0000     0.0000     0.0000 ca         1 3KG      -0.136000
      2 C11          1.3840     0.0000     0.0000 ca         1 3KG      -0.119500
      3 C13         -0.6940    -0.0000     1.1960 ca         1 3KG      -0.119500
      4 C19         -0.5830     4.7150     0.5670 ca         1 3KG      -0.112000
      5 C20         -1.5330     5.7150     0.6750 ca         1 3KG      -0.092000
      6 C10          2.0750     0.0000     1.1960 ca         1 3KG      -0.126000
      7 C14         -0.0080     0.0000     2.3940 ca         1 3KG      -0.126000
      8 C18         -0.2950     3.9140     1.6540 ca         1 3KG      -0.093000
      9 C5           2.7080     0.4360     5.6820 cc         1 3KG      -0.285300
     10 C26         -1.9150     5.1170     2.9630 ca         1 3KG      -0.115000
     11 C6           3.5900    -0.4970     5.1370 cc         1 3KG       0.331200
     12 C21         -2.1980     5.9140     1.8720 ca         1 3KG      -0.157300
     13 C9           1.3800    -0.0000     2.3980 ca         1 3KG       0.038800
     14 C17         -0.9570     4.1160     2.8590 ca         1 3KG       0.135600
     15 C4           1.7710     0.7380     4.7190 cd         1 3KG      -0.089200
     16 C28         -1.1950     2.6750     6.1700 cd         1 3KG      -0.291200
     17 C27         -1.4310     3.4350     5.0720 cc         1 3KG       0.042000
     18 C3           0.6410     1.6790     4.8600 cd         1 3KG       0.350900
     19 C2          -0.1270     1.7480     6.1150 c          1 3KG       0.450000
     20 N7           3.2220    -0.7550     3.9060 nd         1 3KG      -0.492800
     21 N15          0.3080     2.4800     3.8710 nc         1 3KG      -0.398400
     22 N8           2.0790    -0.0010     3.6120 na         1 3KG       0.151300
     23 N16         -0.6670     3.3060     3.9630 na         1 3KG      -0.128900
     24 O1           0.1470     1.0340     7.0690 o          1 3KG      -0.534100
     25 F23         -2.8470     7.9120     2.9760 f          1 3KG      -0.219967
     26 F24         -3.3420     7.6720     0.7600 f          1 3KG      -0.219967
     27 F25         -4.4670     6.4420     2.3220 f          1 3KG      -0.219967
     28 H1          -0.5400    -0.0000    -0.9390 ha         1 3KG       0.133000
     29 H2           1.9250     0.0000    -0.9380 ha         1 3KG       0.136500
     30 H3          -1.7780    -0.0000     1.1920 ha         1 3KG       0.136500
     31 H4          -0.0660     4.5590    -0.3720 ha         1 3KG       0.151000
     32 H5          -1.7570     6.3420    -0.1790 ha         1 3KG       0.157000
     33 H6           3.1580    -0.0000     1.1960 ha         1 3KG       0.147000
     34 H7          -0.5530    -0.0000     3.3300 ha         1 3KG       0.147000
     35 H8           0.4510     3.1330     1.5700 ha         1 3KG       0.173000
     36 H9           2.7520     0.8470     6.6830 ha         1 3KG       0.173000
     37 H10         -2.4340     5.2760     3.9000 ha         1 3KG       0.150000
     38 H11          4.4420    -0.9330     5.6450 h4         1 3KG       0.053100
     39 H12         -1.8020     2.7770     7.0610 ha         1 3KG       0.177000
     40 H13         -2.2410     4.1540     5.0830 h4         1 3KG       0.170000
     41 C22         -3.2320     7.0050     1.9840 c3         1 3KG       0.676200
@<TRIPOS>BOND
     1    27    41 1   
     2    25    41 1   
     3    41    26 1   
     4    41    12 1   
     5     5    12 ar  
     6     5     4 ar  
     7    12    10 ar  
     8     4     8 ar  
     9    10    14 ar  
    10     8    14 ar  
    11    14    23 1   
    12    17    23 1   
    13    17    16 2   
    14    23    21 1   
    15     1     3 ar  
    16     1     2 ar  
    17     3     7 ar  
    18    16    19 1   
    19    21    18 2   
    20     2     6 ar  
    21     7    13 ar  
    22    18    19 1   
    23    18    15 1   
    24    19    24 2   
    25     6    13 ar  
    26    13    22 1   
    27    15    22 1   
    28    15     9 2   
    29    22    20 1   
    30     9    11 1   
    31    20    11 2   
    32     1    28 1   
    33     2    29 1   
    34     3    30 1   
    35     4    31 1   
    36     5    32 1   
    37     6    33 1   
    38     7    34 1   
    39     8    35 1   
    40     9    36 1   
    41    10    37 1   
    42    11    38 1   
    43    16    39 1   
    44    17    40 1   
@<TRIPOS>SUBSTRUCTURE
     1 3KG         1 TEMP              0 ****  ****    0 ROOT
