@<TRIPOS>MOLECULE
3KG
   41    44     1     0     0
SMALL
bcc


@<TRIPOS>ATOM
      1 C12          0.0000     0.0000     0.0000 ca         1 3KG      -0.099000
      2 C11          1.3840     0.0000     0.0000 ca         1 3KG      -0.094500
      3 C13         -0.6940    -0.0000     1.1960 ca         1 3KG      -0.094500
      4 C19         -0.5830     4.7150     0.5670 ca         1 3KG      -0.084000
      5 C20         -1.5330     5.7150     0.6750 ca         1 3KG      -0.046000
      6 C10          2.0750     0.0000     1.1960 ca         1 3KG      -0.092500
      7 C14         -0.0080     0.0000     2.3940 ca         1 3KG      -0.092500
      8 C18         -0.2950     3.9140     1.6540 ca         1 3KG      -0.058000
      9 C5           2.7080     0.4360     5.6820 cc         1 3KG      -0.275300
     10 C26         -1.9150     5.1170     2.9630 ca         1 3KG      -0.069000
     11 C6           3.5900    -0.4970     5.1370 cc         1 3KG       0.391200
     12 C21         -2.1980     5.9140     1.8720 ca         1 3KG      -0.187300
     13 C9           1.3800    -0.0000     2.3980 ca         1 3KG      -0.134200
     14 C17         -0.9570     4.1160     2.8590 ca         1 3KG      -0.057400
     15 C4           1.7710     0.7380     4.7190 cd         1 3KG      -0.268200
     16 C28         -1.1950     2.6750     6.1700 cc         1 3KG      -0.251200
     17 C27         -1.4310     3.4350     5.0720 cd         1 3KG      -0.131000
     18 C3           0.6410     1.6790     4.8600 cd         1 3KG       0.348900
     19 C2          -0.1270     1.7480     6.1150 c          1 3KG       0.491000
     20 N7           3.2220    -0.7550     3.9060 nd         1 3KG      -0.655800
     21 N15          0.3080     2.4800     3.8710 nc         1 3KG      -0.499400
     22 N8           2.0790    -0.0010     3.6120 na         1 3KG       0.631300
     23 N16         -0.6670     3.3060     3.9630 na         1 3KG       0.349100
     24 O1           0.1470     1.0340     7.0690 o          1 3KG      -0.571100
     25 F23         -2.8470     7.9120     2.9760 f          1 3KG      -0.204967
     26 F24         -3.3420     7.6720     0.7600 f          1 3KG      -0.204967
     27 F25         -4.4670     6.4420     2.3220 f          1 3KG      -0.204967
     28 H1          -0.5400    -0.0000    -0.9390 ha         1 3KG       0.105000
     29 H2           1.9250     0.0000    -0.9380 ha         1 3KG       0.107000
     30 H3          -1.7780    -0.0000     1.1920 ha         1 3KG       0.107000
     31 H4          -0.0660     4.5590    -0.3720 ha         1 3KG       0.118000
     32 H5          -1.7570     6.3420    -0.1790 ha         1 3KG       0.126000
     33 H6           3.1580    -0.0000     1.1960 ha         1 3KG       0.120000
     34 H7          -0.5530    -0.0000     3.3300 ha         1 3KG       0.120000
     35 H8           0.4510     3.1330     1.5700 ha         1 3KG       0.142000
     36 H9           2.7520     0.8470     6.6830 ha         1 3KG       0.148000
     37 H10         -2.4340     5.2760     3.9000 ha         1 3KG       0.130000
     38 H11          4.4420    -0.9330     5.6450 h4         1 3KG       0.005100
     39 H12         -1.8020     2.7770     7.0610 ha         1 3KG       0.146000
     40 H13         -2.2410     4.1540     5.0830 h4         1 3KG       0.149000
     41 C22         -3.2320     7.0050     1.9840 c3         1 3KG       0.640200
@<TRIPOS>BOND
     1     1     2 ar  
     2     1     3 ar  
     3     1    28 1   
     4     2     6 ar  
     5     2    29 1   
     6     3     7 ar  
     7     3    30 1   
     8     4     5 ar  
     9     4     8 ar  
    10     4    31 1   
    11     5    12 ar  
    12     5    32 1   
    13     6    13 ar  
    14     6    33 1   
    15     7    13 ar  
    16     7    34 1   
    17     8    14 ar  
    18     8    35 1   
    19     9    11 1   
    20     9    15 2   
    21     9    36 1   
    22    10    12 ar  
    23    10    14 ar  
    24    10    37 1   
    25    11    20 2   
    26    11    38 1   
    27    12    41 1   
    28    13    22 1   
    29    14    23 1   
    30    15    18 1   
    31    15    22 1   
    32    16    17 2   
    33    16    19 1   
    34    16    39 1   
    35    17    23 1   
    36    17    40 1   
    37    18    19 1   
    38    18    21 2   
    39    19    24 2   
    40    20    22 1   
    41    21    23 1   
    42    25    41 1   
    43    26    41 1   
    44    27    41 1   
@<TRIPOS>SUBSTRUCTURE
     1 3KG         1 TEMP              0 ****  ****    0 ROOT
