@<TRIPOS>MOLECULE
molecule
   21    23     1     0     0
SMALL
bcc


@<TRIPOS>ATOM
      1 CAA          0.0000     0.0000     0.0000 ca         1 3KH      -0.096000
      2 CAF          1.3890     0.0000     0.0000 ca         1 3KH      -0.076200
      3 NAH          2.3420     0.0000     0.9910 na         1 3KH      -0.054100
      4 NAI          3.5870     0.0010     0.3460 nc         1 3KH      -0.131400
      5 NAG          3.4090     0.0010    -0.9280 nd         1 3KH      -0.211400
      6 CAE          2.0930     0.0000    -1.2170 ca         1 3KH       0.027400
      7 CAD          1.3810     0.0010    -2.4280 ca         1 3KH      -0.047000
      8 CAC          0.0210     0.0010    -2.4200 ca         1 3KH      -0.142000
      9 CAB         -0.6860    -0.0060    -1.2090 ca         1 3KH      -0.087500
     10 CAJ         -2.1640    -0.0060    -1.2180 cd         1 3KH       0.485900
     11 S           -3.1950     0.0020    -2.6510 ss         1 3KH      -0.364800
     12 NAM         -2.9380    -0.0180    -0.1700 nc         1 3KH      -0.327000
     13 NAL         -4.1850    -0.0170    -0.3610 nc         1 3KH      -0.337000
     14 CAK         -4.6080    -0.0040    -1.5940 cd         1 3KH       0.681300
     15 NAO         -5.9320    -0.0020    -2.0030 nv         1 3KH      -1.018500
     16 H1          -0.5450    -0.0060     0.9360 ha         1 3KH       0.160000
     17 H2           2.1790    -0.0000     1.9790 hn         1 3KH       0.340700
     18 H3           1.9170     0.0070    -3.3690 ha         1 3KH       0.152000
     19 H4          -0.5210    -0.0030    -3.3580 ha         1 3KH       0.145000
     20 H5          -6.4070    -0.8670    -2.1650 hn         1 3KH       0.449800
     21 H6          -6.4080     0.8660    -2.1510 hn         1 3KH       0.449800
@<TRIPOS>BOND
     1     7     8 ar  
     2     7     6 ar  
     3     8     9 ar  
     4     5     6 1   
     5     5     4 2   
     6     6     2 ar  
     7     9    10 1   
     8     9     1 ar  
     9     4     3 1   
    10    12    10 2   
    11    12    13 1   
    12     2     1 ar  
    13     2     3 1   
    14    10    11 1   
    15    13    14 2   
    16    11    14 1   
    17    14    15 1   
    18     1    16 1   
    19     3    17 1   
    20     7    18 1   
    21     8    19 1   
    22    15    20 1   
    23    15    21 1   
@<TRIPOS>SUBSTRUCTURE
     1 3KH         1 TEMP              0 ****  ****    0 ROOT
