@<TRIPOS>MOLECULE
molecule
   30    29     1     0     0
SMALL
bcc


@<TRIPOS>ATOM
      1 OA1          0.0000     0.0000     0.0000 o          1 3KJ      -0.774800
      2 C            1.3430     0.0000     0.0000 c          1 3KJ       0.868600
      3 OA2          1.9460     0.0000     1.0470 o          1 3KJ      -0.774800
      4 CA           2.0960    -0.0010    -1.3040 c3         1 3KJ      -0.016500
      5 N            3.4690     0.4740    -1.0770 nz         1 3KJ      -0.792600
      6 CB           2.1350    -1.4210    -1.8710 c3         1 3KJ      -0.085400
      7 CG           2.7900    -1.4010    -3.2530 c3         1 3KJ      -0.124400
      8 CD           2.8290    -2.8220    -3.8200 c3         1 3KJ       0.264800
      9 NE           3.4560    -2.8030    -5.1440 nu         1 3KJ      -0.893200
     10 CZ           3.6020    -3.9720    -5.8530 c2         1 3KJ       0.890100
     11 NH1          3.1820    -5.0970    -5.3470 n2         1 3KJ      -0.960100
     12 NH2          4.1910    -3.9540    -7.0950 nh         1 3KJ      -0.659100
     13 C1           4.3460    -5.2000    -7.8500 c3         1 3KJ       0.232100
     14 OH           4.6470    -2.7310    -7.6450 oh         1 3KJ      -0.354300
     15 H2           1.6000     0.6560    -2.0080 hx         1 3KJ       0.103700
     16 H3           3.8500     0.8150    -1.9370 hn         1 3KJ       0.439133
     17 H4           3.4600     1.2110    -0.4000 hn         1 3KJ       0.439133
     18 H6           2.7080    -2.0590    -1.2090 hc         1 3KJ       0.090200
     19 H7           1.1250    -1.8040    -1.9560 hc         1 3KJ       0.090200
     20 H8           2.2160    -0.7640    -3.9150 hc         1 3KJ       0.032700
     21 H9           3.7990    -1.0180    -3.1690 hc         1 3KJ       0.032700
     22 H10          3.4030    -3.4590    -3.1580 h1         1 3KJ       0.061200
     23 H11          1.8190    -3.2050    -3.9050 h1         1 3KJ       0.061200
     24 H12          3.7830    -1.9400    -5.5300 hn         1 3KJ       0.444800
     25 H13          3.2880    -5.9480    -5.8640 hn         1 3KJ       0.406400
     26 H15          4.8510    -4.9940    -8.7860 h1         1 3KJ       0.047367
     27 H16          3.3690    -5.6230    -8.0520 h1         1 3KJ       0.047367
     28 H17          4.9310    -5.9030    -7.2700 h1         1 3KJ       0.047367
     29 H18          4.1540    -2.5340    -8.4240 ho         1 3KJ       0.396000
     30 HN3          4.0330    -0.2840    -0.7460 hn         1 3KJ       0.439133
@<TRIPOS>BOND
     1    14    12 1   
     2    13    12 1   
     3    12    10 1   
     4    10    11 2   
     5    10     9 1   
     6     8     9 1   
     7     8     7 1   
     8     3     2 1   
     9     6     7 1   
    10     6     4 1   
    11     2     4 1   
    12     2     1 1   
    13     4     5 1   
    14     4    15 1   
    15     5    16 1   
    16     5    17 1   
    17     6    18 1   
    18     6    19 1   
    19     7    20 1   
    20     7    21 1   
    21     8    22 1   
    22     8    23 1   
    23     9    24 1   
    24    11    25 1   
    25    13    26 1   
    26    13    27 1   
    27    13    28 1   
    28    14    29 1   
    29    30     5 1   
@<TRIPOS>SUBSTRUCTURE
     1 3KJ         1 TEMP              0 ****  ****    0 ROOT
