@<TRIPOS>MOLECULE
3KJ
   30    29     1     0     0
SMALL
bcc


@<TRIPOS>ATOM
      1 OA1          0.0000     0.0000     0.0000 o          1 3KJ      -0.815300
      2 C            1.3430     0.0000     0.0000 c          1 3KJ       0.954600
      3 OA2          1.9460     0.0000     1.0470 o          1 3KJ      -0.815300
      4 CA           2.0960    -0.0010    -1.3040 c3         1 3KJ      -0.200500
      5 N            3.4690     0.4740    -1.0770 nz         1 3KJ       0.079400
      6 CB           2.1350    -1.4210    -1.8710 c3         1 3KJ      -0.017400
      7 CG           2.7900    -1.4010    -3.2530 c3         1 3KJ      -0.055400
      8 CD           2.8290    -2.8220    -3.8200 c3         1 3KJ       0.183800
      9 NE           3.4560    -2.8030    -5.1440 nu         1 3KJ      -0.557200
     10 CZ           3.6020    -3.9720    -5.8530 c2         1 3KJ       0.582100
     11 NH1          3.1820    -5.0970    -5.3470 n2         1 3KJ      -0.868100
     12 NH2          4.1910    -3.9540    -7.0950 nh         1 3KJ      -0.244100
     13 C1           4.3460    -5.2000    -7.8500 c3         1 3KJ       0.219100
     14 OH           4.6470    -2.7310    -7.6450 oh         1 3KJ      -0.419300
     15 H2           1.6000     0.6560    -2.0080 hx         1 3KJ       0.087700
     16 H3           3.8500     0.8160    -1.9370 hn         1 3KJ       0.211467
     17 H4           3.4600     1.2100    -0.4000 hn         1 3KJ       0.211467
     18 H6           2.7080    -2.0590    -1.2090 hc         1 3KJ       0.057700
     19 H7           1.1250    -1.8040    -1.9560 hc         1 3KJ       0.057700
     20 H8           2.2160    -0.7640    -3.9150 hc         1 3KJ       0.008200
     21 H9           3.7990    -1.0180    -3.1690 hc         1 3KJ       0.008200
     22 H10          3.4030    -3.4590    -3.1580 h1         1 3KJ       0.023700
     23 H11          1.8190    -3.2050    -3.9050 h1         1 3KJ       0.023700
     24 H12          3.7750    -1.9390    -5.5340 hn         1 3KJ       0.299800
     25 H13          2.7530    -5.1110    -4.4430 hn         1 3KJ       0.338400
     26 H15          5.0000    -5.8710    -7.3080 h1         1 3KJ       0.014033
     27 H16          3.3770    -5.6660    -7.9800 h1         1 3KJ       0.014033
     28 H17          4.7750    -4.9830    -8.8210 h1         1 3KJ       0.014033
     29 H18          5.5800    -2.7710    -7.7690 ho         1 3KJ       0.393000
     30 HN3          4.0310    -0.2820    -0.7380 hn         1 3KJ       0.211467
@<TRIPOS>BOND
     1     1     2 1   
     2     2     3 1   
     3     2     4 1   
     4     4     5 1   
     5     4     6 1   
     6     4    15 1   
     7     5    16 1   
     8     5    17 1   
     9     5    30 1   
    10     6     7 1   
    11     6    18 1   
    12     6    19 1   
    13     7     8 1   
    14     7    20 1   
    15     7    21 1   
    16     8     9 1   
    17     8    22 1   
    18     8    23 1   
    19     9    10 1   
    20     9    24 1   
    21    10    11 2   
    22    10    12 1   
    23    11    25 1   
    24    12    13 1   
    25    12    14 1   
    26    13    26 1   
    27    13    27 1   
    28    13    28 1   
    29    14    29 1   
@<TRIPOS>SUBSTRUCTURE
     1 3KJ         1 TEMP              0 ****  ****    0 ROOT
