@<TRIPOS>MOLECULE
3KL
   64    67     1     0     0
SMALL
bcc


@<TRIPOS>ATOM
      1 C2          0.1700    0.0130   -0.1460 c3        1 3KL     -0.182400
      2 C3          1.6680    0.0960   -0.1720 c         1 3KL      0.574100
      3 O3          2.3110    0.1680   -1.2250 o         1 3KL     -0.546100
      4 C4          2.3280    0.1230    1.1740 c3        1 3KL     -0.181400
      5 C5          1.8090   -0.9600    2.1110 c3        1 3KL     -0.044700
      6 C6          2.4420   -0.7920    3.4850 c3        1 3KL     -0.073400
      7 C1         -0.2910   -1.0970    0.7690 c3        1 3KL     -0.068400
      8 C7          1.8990    0.4010    4.2380 c3        1 3KL     -0.075400
      9 C8          0.3830    0.3560    4.3350 c3        1 3KL     -0.047700
     10 C9         -0.2490    0.2360    2.9380 c3        1 3KL     -0.045700
     11 C10         0.2700   -1.0070    2.1950 c3        1 3KL     -0.039000
     12 C11        -1.7710    0.2970    3.0080 c3        1 3KL     -0.072400
     13 C12        -2.3040    1.4880    3.7900 c3        1 3KL     -0.065400
     14 C13        -1.6930    1.5550    5.1800 c3        1 3KL     -0.047000
     15 C14        -0.1560    1.6150    4.9820 c3        1 3KL     -0.067700
     16 C15         0.3760    2.0380    6.3420 c3        1 3KL     -0.073400
     17 C16        -0.7110    2.9580    6.9050 c3        1 3KL     -0.080400
     18 C17        -1.9350    2.8660    5.9700 c3        1 3KL     -0.047700
     19 C18        -2.1320    0.3630    6.0130 c3        1 3KL     -0.080100
     20 C19        -0.1460   -2.2960    2.9010 c3        1 3KL     -0.087100
     21 C20        -3.2460    2.9920    6.7370 c3        1 3KL     -0.061700
     22 C21        -4.4460    2.8770    5.8180 c3        1 3KL     -0.086100
     23 C22        -3.2950    4.3270    7.4800 c3        1 3KL     -0.068400
     24 C23        -4.3460    4.3600    8.5630 c3        1 3KL     -0.196400
     25 C24        -4.1380    5.5610    9.5050 c         1 3KL      0.907600
     26 OT1        -5.1610    6.2190    9.8510 o         1 3KL     -0.851800
     27 OT2        -2.9650    5.8210    9.9030 o         1 3KL     -0.851800
     28 H1         -0.2320    1.0010    0.2050 hc        1 3KL      0.069200
     29 H2         -0.2220   -0.1630   -1.1830 hc        1 3KL      0.069200
     30 H3          3.4370    0.0040    1.0550 hc        1 3KL      0.070700
     31 H4          2.1440    1.1390    1.6180 hc        1 3KL      0.070700
     32 H5          2.1480   -1.9520    1.6940 hc        1 3KL      0.043700
     33 H6          3.5520   -0.6840    3.3670 hc        1 3KL      0.038700
     34 H7          2.2590   -1.7240    4.0830 hc        1 3KL      0.038700
     35 H8          0.0290   -2.0820    0.3300 hc        1 3KL      0.045700
     36 H9         -1.4110   -1.1050    0.8060 hc        1 3KL      0.045700
     37 H10         2.2160    1.3520    3.7340 hc        1 3KL      0.042200
     38 H11         2.3300    0.4200    5.2740 hc        1 3KL      0.042200
     39 H12         0.0970   -0.5350    4.9580 hc        1 3KL      0.055700
     40 H13         0.0890    1.1370    2.3470 hc        1 3KL      0.041700
     41 H14        -2.1640   -0.6480    3.4660 hc        1 3KL      0.034200
     42 H15        -2.1810    0.3600    1.9650 hc        1 3KL      0.034200
     43 H16        -2.0740    2.4360    3.2360 hc        1 3KL      0.042700
     44 H17        -3.4200    1.4040    3.8600 hc        1 3KL      0.042700
     45 H18         0.0540    2.4680    4.2700 hc        1 3KL      0.041700
     46 H19         1.3550    2.5690    6.2470 hc        1 3KL      0.033700
     47 H20         0.5330    1.1510    7.0040 hc        1 3KL      0.033700
     48 H21        -0.3480    4.0140    6.9580 hc        1 3KL      0.057200
     49 H22        -0.9880    2.6430    7.9420 hc        1 3KL      0.057200
     50 H23        -1.8900    3.7170    5.2340 hc        1 3KL      0.041700
     51 H24        -3.2440    0.3630    6.1240 hc        1 3KL      0.033367
     52 H25        -1.6740    0.4160    7.0310 hc        1 3KL      0.033367
     53 H26        -1.8350   -0.6030    5.5410 hc        1 3KL      0.033367
     54 H27        -1.2540   -2.4270    2.8450 hc        1 3KL      0.036367
     55 H28         0.1550   -2.2860    3.9740 hc        1 3KL      0.036367
     56 H29         0.3350   -3.1760    2.4100 hc        1 3KL      0.036367
     57 H30        -3.2970    2.1650    7.5010 hc        1 3KL      0.043700
     58 H31        -4.6150    1.8190    5.5030 hc        1 3KL      0.025367
     59 H32        -5.3650    3.2320    6.3460 hc        1 3KL      0.025367
     60 H33        -4.3020    3.5010    4.9030 hc        1 3KL      0.025367
     61 H34        -3.4860    5.1500    6.7430 hc        1 3KL      0.048200
     62 H35        -2.3030    4.5390    7.9650 hc        1 3KL      0.048200
     63 H36        -5.3730    4.4170    8.1220 hc        1 3KL      0.019700
     64 H37        -4.2900    3.4310    9.1850 hc        1 3KL      0.019700
@<TRIPOS>BOND
     1    1    2 1   
     2    1    7 1   
     3    1   28 1   
     4    1   29 1   
     5    2    3 2   
     6    2    4 1   
     7    4    5 1   
     8    4   30 1   
     9    4   31 1   
    10    5    6 1   
    11    5   11 1   
    12    5   32 1   
    13    6    8 1   
    14    6   33 1   
    15    6   34 1   
    16    7   11 1   
    17    7   35 1   
    18    7   36 1   
    19    8    9 1   
    20    8   37 1   
    21    8   38 1   
    22    9   10 1   
    23    9   15 1   
    24    9   39 1   
    25   10   11 1   
    26   10   12 1   
    27   10   40 1   
    28   11   20 1   
    29   12   13 1   
    30   12   41 1   
    31   12   42 1   
    32   13   14 1   
    33   13   43 1   
    34   13   44 1   
    35   14   15 1   
    36   14   18 1   
    37   14   19 1   
    38   15   16 1   
    39   15   45 1   
    40   16   17 1   
    41   16   46 1   
    42   16   47 1   
    43   17   18 1   
    44   17   48 1   
    45   17   49 1   
    46   18   21 1   
    47   18   50 1   
    48   19   51 1   
    49   19   52 1   
    50   19   53 1   
    51   20   54 1   
    52   20   55 1   
    53   20   56 1   
    54   21   22 1   
    55   21   23 1   
    56   21   57 1   
    57   22   58 1   
    58   22   59 1   
    59   22   60 1   
    60   23   24 1   
    61   23   61 1   
    62   23   62 1   
    63   24   25 1   
    64   24   63 1   
    65   24   64 1   
    66   25   26 1   
    67   25   27 1   
@<TRIPOS>SUBSTRUCTURE
     1 3KL         1 TEMP              0 ****  ****    0 ROOT
