@<TRIPOS>MOLECULE
molecule
   64    67     1     0     0
SMALL
bcc


@<TRIPOS>ATOM
      1 C2           0.0000     0.0000     0.0000 c3         1 3KL      -0.184400
      2 C3           1.5130     0.0000     0.0000 c          1 3KL       0.571100
      3 O3           2.1330    -0.0000    -1.0360 o          1 3KL      -0.537100
      4 C4           2.2290     0.0000     1.3330 c3         1 3KL      -0.183400
      5 C5           1.6660    -1.1380     2.1920 c3         1 3KL      -0.050700
      6 C6           2.2670    -1.0400     3.5980 c3         1 3KL      -0.078400
      7 C1          -0.4840    -1.1380     0.9030 c3         1 3KL      -0.066400
      8 C7           1.9210     0.3230     4.2020 c3         1 3KL      -0.078400
      9 C8           0.4030     0.4740     4.2900 c3         1 3KL      -0.065700
     10 C9          -0.2000     0.3700     2.8800 c3         1 3KL      -0.055700
     11 C10          0.1450    -0.9960     2.2880 c3         1 3KL      -0.060000
     12 C11         -1.7130     0.5640     2.9030 c3         1 3KL      -0.081400
     13 C12         -2.0960     1.8910     3.5800 c3         1 3KL      -0.065400
     14 C13         -1.5110     1.8700     4.9790 c3         1 3KL      -0.061000
     15 C14          0.0350     1.8400     4.8360 c3         1 3KL      -0.070700
     16 C15          0.4860     2.1300     6.2720 c3         1 3KL      -0.079400
     17 C16         -0.4950     3.2480     6.7230 c3         1 3KL      -0.077400
     18 C17         -1.7580     3.1040     5.8400 c3         1 3KL      -0.051700
     19 C18         -1.9850     0.6180     5.7200 c3         1 3KL      -0.099100
     20 C19         -0.4090    -2.0960     3.1970 c3         1 3KL      -0.087100
     21 C20         -2.9960     2.8990     6.7150 c3         1 3KL      -0.080700
     22 C21         -4.2270     2.7220     5.8240 c3         1 3KL      -0.093100
     23 C22         -3.1900     4.1170     7.6180 c3         1 3KL      -0.062400
     24 C23         -4.3530     3.8590     8.5800 c3         1 3KL      -0.184400
     25 C24         -4.5450     5.0610     9.4690 c          1 3KL       0.890600
     26 OT1         -5.5140     5.0610    10.3980 o          1 3KL      -0.856800
     27 OT2         -3.8250     6.0250     9.3470 o          1 3KL      -0.856800
     28 H1          -0.3630     0.9460     0.3820 hc         1 3KL       0.068700
     29 H2          -0.3630    -0.1570    -1.0080 hc         1 3KL       0.068700
     30 H3           3.2890    -0.1550     1.1750 hc         1 3KL       0.072700
     31 H4           2.0640     0.9470     1.8320 hc         1 3KL       0.072700
     32 H5           1.9200    -2.0940     1.7490 hc         1 3KL       0.051700
     33 H6           1.8550    -1.8250     4.2210 hc         1 3KL       0.042200
     34 H7           3.3430    -1.1450     3.5380 hc         1 3KL       0.042200
     35 H8          -1.5630    -1.0920     0.9920 hc         1 3KL       0.048200
     36 H9          -0.1930    -2.0880     0.4710 hc         1 3KL       0.048200
     37 H10          2.3250     1.1070     3.5730 hc         1 3KL       0.043200
     38 H11          2.3480     0.3940     5.1950 hc         1 3KL       0.043200
     39 H12         -0.0090    -0.3010     4.9250 hc         1 3KL       0.071700
     40 H13          0.2390     1.1400     2.2570 hc         1 3KL       0.047700
     41 H14         -2.1650    -0.2550     3.4490 hc         1 3KL       0.040200
     42 H15         -2.0840     0.5670     1.8850 hc         1 3KL       0.040200
     43 H16         -3.1750     1.9770     3.6350 hc         1 3KL       0.045700
     44 H17         -1.6820     2.7220     3.0210 hc         1 3KL       0.045700
     45 H18          0.3690     2.6230     4.1660 hc         1 3KL       0.052700
     46 H19          0.3730     1.2500     6.8930 hc         1 3KL       0.037200
     47 H20          1.5070     2.4900     6.2860 hc         1 3KL       0.037200
     48 H21         -0.7540     3.1130     7.7660 hc         1 3KL       0.052700
     49 H22         -0.0440     4.2200     6.5690 hc         1 3KL       0.052700
     50 H23         -1.8760     3.9790     5.2130 hc         1 3KL       0.053700
     51 H24         -2.9430     0.3050     5.3230 hc         1 3KL       0.040033
     52 H25         -2.0870     0.8400     6.7750 hc         1 3KL       0.040033
     53 H26         -1.2620    -0.1770     5.5870 hc         1 3KL       0.040033
     54 H27         -1.4920    -2.0660     3.1800 hc         1 3KL       0.038033
     55 H28         -0.0690    -3.0620     2.8430 hc         1 3KL       0.038033
     56 H29         -0.0590    -1.9380     4.2100 hc         1 3KL       0.038033
     57 H30         -2.8630     2.0140     7.3270 hc         1 3KL       0.048700
     58 H31         -5.0820     3.1960     6.2910 hc         1 3KL       0.030033
     59 H32         -4.0430     3.1790     4.8590 hc         1 3KL       0.030033
     60 H33         -4.4280     1.6660     5.6910 hc         1 3KL       0.030033
     61 H34         -2.2850     4.2940     8.1860 hc         1 3KL       0.047700
     62 H35         -3.4110     4.9860     7.0100 hc         1 3KL       0.047700
     63 H36         -4.1320     2.9910     9.1880 hc         1 3KL       0.027700
     64 H37         -5.2590     3.6820     8.0120 hc         1 3KL       0.027700
@<TRIPOS>BOND
     1    27    25 1
     2    26    25 1
     3    25    24 1
     4    24    23 1
     5    23    21 1
     6    21    22 1
     7    21    18 1
     8    17    18 1
     9    17    16 1
    10    18    14 1
    11    16    15 1
    12    15    14 1
    13    15     9 1
    14    14    13 1
    15    14    19 1
    16    13    12 1
    17     8     9 1
    18     8     6 1
    19     9    10 1
    20     4     2 1
    21     4     5 1
    22     3     2 2
    23     2     1 1
    24    10    12 1
    25    10    11 1
    26     1     7 1
    27     6     5 1
    28     5    11 1
    29    11     7 1
    30    11    20 1
    31     1    28 1
    32     1    29 1
    33     4    30 1
    34     4    31 1
    35     5    32 1
    36     6    33 1
    37     6    34 1
    38     7    35 1
    39     7    36 1
    40     8    37 1
    41     8    38 1
    42     9    39 1
    43    10    40 1
    44    12    41 1
    45    12    42 1
    46    13    43 1
    47    13    44 1
    48    15    45 1
    49    16    46 1
    50    16    47 1
    51    17    48 1
    52    17    49 1
    53    18    50 1
    54    19    51 1
    55    19    52 1
    56    19    53 1
    57    20    54 1
    58    20    55 1
    59    20    56 1
    60    21    57 1
    61    22    58 1
    62    22    59 1
    63    22    60 1
    64    23    61 1
    65    23    62 1
    66    24    63 1
    67    24    64 1
@<TRIPOS>SUBSTRUCTURE
     1 3KL         1 TEMP              0 ****  ****    0 ROOT
