@<TRIPOS>MOLECULE
3KM
   72    77     1     0     0
SMALL
bcc


@<TRIPOS>ATOM
      1 N1           0.0000     0.0000     0.0000 n7         1 3KM      -0.548000
      2 N3           0.9560     7.2240     1.4410 n2         1 3KM       0.092000
      3 C4           0.0340    -5.2360    -0.5860 ca         1 3KM       0.002000
      4 C5           0.8670    -4.4560    -1.4280 ca         1 3KM      -0.076000
      5 C6           1.9560    -5.0640    -2.0740 ca         1 3KM      -0.090000
      6 C7          -1.0550    -4.6290     0.0600 ca         1 3KM      -0.089000
      7 C8          -1.2970    -3.3030    -0.1290 ca         1 3KM      -0.025000
      8 C10          0.5860    -3.0900    -1.5990 ca         1 3KM       0.015000
      9 C13          1.9740     1.2500    -0.7210 c3         1 3KM       0.040000
     10 C15          3.6380    -0.6220     3.0980 DU         1 3KM      -0.113000
     11 C17          5.9670    -0.5190     2.1990 c3         1 3KM      -0.100000
     12 C20          1.6120     4.7850     0.1560 c2         1 3KM      -0.081000
     13 C21          2.0050     6.0170    -0.3650 c2         1 3KM      -0.174000
     14 C22          2.7400     6.0640    -1.5500 c3         1 3KM      -0.090000
     15 C24          2.6900     3.6740    -1.6790 c2         1 3KM      -0.290000
     16 C26          7.3360     0.1460     2.3490 c3         1 3KM      -0.085000
     17 C1           2.1980    -6.3900    -1.8830 ca         1 3KM      -0.092000
     18 O1           1.5820     2.4140     0.0080 os         1 3KM      -0.144000
     19 S1          -0.8280    -0.8230    -1.1740 s6         1 3KM       2.379000
     20 C2           1.3800    -7.1570    -1.0570 ca         1 3KM      -0.070000
     21 N2           3.1820    -0.5100     1.7060 n          1 3KM      -0.078000
     22 O2           1.2780     0.4590     2.3080 o          1 3KM      -0.333000
     23 C3           0.3130    -6.6040    -0.4180 ca         1 3KM      -0.090000
     24 O3          -2.2090    -0.6550    -0.8850 o          1 3KM      -0.847500
     25 N4           2.0320     8.4860    -0.1830 nz         1 3KM       0.955000
     26 O4          -0.2430    -0.4490    -2.4140 o          1 3KM      -0.847500
     27 N5           9.6510     0.1110     1.5520 nz         1 3KM       0.864000
     28 C9          -0.4790    -2.5360    -0.9570 ca         1 3KM      -0.612000
     29 C11          1.4640     0.0000     0.0000 c3         1 3KM      -0.015000
     30 C12          1.9670     0.0000     1.4210 c2         1 3KM       0.228000
     31 C14          1.9580     3.6170    -0.5000 c2         1 3KM       0.188000
     32 C16          4.9990     0.0700     3.2290 c3         1 3KM      -0.420000
     33 C18          5.4300    -0.2670     0.7890 c3         1 3KM      -0.142000
     34 C19          4.0740    -0.9640     0.6310 c3         1 3KM      -0.078000
     35 C23          3.0750     4.8950    -2.2010 c2         1 3KM      -0.250000
     36 C27          8.3360    -0.5280     1.4080 c3         1 3KM      -0.312000
     37 H1          -0.4990     0.3970     0.7720 hn         1 3KM       0.175000
     38 H2           0.6560     6.3640     1.8550 hn         1 3KM       0.147000
     39 H3           2.6040    -4.4830    -2.7190 ha         1 3KM       0.103000
     40 H4          -1.6960    -5.2180     0.7060 ha         1 3KM       0.122000
     41 H5          -2.1380    -2.8370     0.3700 ha         1 3KM       0.129000
     42 H6           1.2220    -2.4860    -2.2350 ha         1 3KM       0.113000
     43 H7           3.0570     1.2200    -0.7190 h1         1 3KM       0.071000
     44 H8           1.6110     1.2900    -1.7410 h1         1 3KM       0.071000
     45 H9           2.9150    -0.1390     3.7430 ha         1 3KM       0.104000
     46 H10          3.7110    -1.6680     3.3700 ha         1 3KM       0.104000
     47 H11          6.0580    -1.5860     2.3620 hc         1 3KM       0.070000
     48 H12          2.2870     4.5830     0.9780 ha         1 3KM       0.131000
     49 H13          3.1520     7.0070    -1.8880 hc         1 3KM       0.106000
     50 H14          3.6970     3.5550    -2.0600 ha         1 3KM       0.259000
     51 H15          7.2750     1.2100     2.1520 hc         1 3KM       0.080500
     52 H16          7.6680    -0.0260     3.3660 hc         1 3KM       0.080500
     53 H17          3.0400    -6.8570    -2.3780 ha         1 3KM       0.108000
     54 H18          1.5960    -8.2110    -0.9250 ha         1 3KM       0.113000
     55 H19         -0.3150    -7.2070     0.2250 ha         1 3KM       0.119000
     56 H20          1.4920     8.5810    -1.0210 hn         1 3KM       0.020333
     57 H21          3.0090     8.5510    -0.3900 hn         1 3KM       0.020333
     58 H22          9.8550     0.2170     2.5260 hn         1 3KM       0.021000
     59 H23          9.6170     1.0000     1.0930 hn         1 3KM       0.021000
     60 H25          1.8270    -0.8840    -0.5090 h1         1 3KM       0.097000
     61 H26          4.1990     0.0540     2.4980 DU         1 3KM       0.312000
     62 H27          5.1110    -0.4810     4.1550 hc         1 3KM       0.142000
     63 H28          6.1270    -0.6690     0.0640 hc         1 3KM       0.066500
     64 H29          5.3040     0.7980     0.6360 hc         1 3KM       0.066500
     65 H30          3.6460    -0.7330    -0.3370 h1         1 3KM       0.086000
     66 H31          4.2210    -2.0320     0.7370 h1         1 3KM       0.086000
     67 H32          3.4320     5.3010    -1.2620 DU         1 3KM       0.228000
     68 H33          8.3940    -1.5870     1.6290 hx         1 3KM       0.127500
     69 H34          7.9880    -0.3850     0.3920 hx         1 3KM       0.127500
     70 H43          1.7830     9.2230     0.4460 hn         1 3KM       0.020333
     71 H53         10.3420    -0.4570     1.1030 hn         1 3KM       0.021000
     72 C25          1.6420     7.2710     0.3350 c2         1 3KM      -0.335000
@<TRIPOS>BOND
     1     1    19 1   
     2     1    29 1   
     3     1    37 1   
     4     2    38 1   
     5     2    72 1   
     6     3     4 1   
     7     3     6 1   
     8     3    23 1   
     9     4     5 1   
    10     4     8 1   
    11     5    17 1   
    12     5    39 1   
    13     6     7 1   
    14     6    40 1   
    15     7    28 1   
    16     7    41 1   
    17     8    28 1   
    18     8    42 1   
    19     9    18 1   
    20     9    29 1   
    21     9    43 1   
    22     9    44 1   
    23    10    21 1   
    24    10    32 1   
    25    10    45 1   
    26    10    46 1   
    27    10    61 1   
    28    11    16 1   
    29    11    32 1   
    30    11    33 1   
    31    11    47 1   
    32    12    13 1   
    33    12    31 1   
    34    12    48 1   
    35    13    14 1   
    36    13    72 1   
    37    14    35 1   
    38    14    49 1   
    39    14    67 1   
    40    15    31 1   
    41    15    35 1   
    42    15    50 1   
    43    16    36 1   
    44    16    51 1   
    45    16    52 1   
    46    17    20 1   
    47    17    53 1   
    48    18    31 1   
    49    19    24 1   
    50    19    26 1   
    51    19    28 1   
    52    20    23 1   
    53    20    54 1   
    54    21    30 1   
    55    21    34 1   
    56    22    30 1   
    57    23    55 1   
    58    25    56 1   
    59    25    57 1   
    60    25    70 1   
    61    25    72 1   
    62    27    36 1   
    63    27    58 1   
    64    27    59 1   
    65    27    71 1   
    66    29    30 1   
    67    29    60 1   
    68    32    61 1   
    69    32    62 1   
    70    33    34 1   
    71    33    63 1   
    72    33    64 1   
    73    34    65 1   
    74    34    66 1   
    75    35    67 1   
    76    36    68 1   
    77    36    69 1   
@<TRIPOS>SUBSTRUCTURE
     1 3KM         1 TEMP              0 ****  ****    0 ROOT
