@<TRIPOS>MOLECULE
molecule
   72    75     1     0     0
SMALL
bcc


@<TRIPOS>ATOM
      1 N1           0.0000     0.0000     0.0000 n7         1 3KM      -0.895100
      2 N3           0.9560     7.2240     1.4410 n2         1 3KM      -0.672100
      3 C4           0.0340    -5.2360    -0.5860 ca         1 3KM       0.006000
      4 C5           0.8670    -4.4560    -1.4280 ca         1 3KM      -0.066000
      5 C6           1.9560    -5.0640    -2.0740 ca         1 3KM      -0.118000
      6 C7          -1.0550    -4.6290     0.0600 ca         1 3KM      -0.113000
      7 C8          -1.2970    -3.3030    -0.1290 ca         1 3KM      -0.055000
      8 C10          0.5860    -3.0900    -1.5990 ca         1 3KM      -0.018000
      9 C13          1.9740     1.2500    -0.7210 c3         1 3KM       0.120400
     10 C15          3.6380    -0.6220     3.0980 c3         1 3KM       0.140000
     11 C17          5.9670    -0.5190     2.1990 c3         1 3KM      -0.031700
     12 C20          1.6120     4.7850     0.1560 ca         1 3KM      -0.084000
     13 C21          2.0050     6.0170    -0.3650 ca         1 3KM      -0.147900
     14 C22          2.7400     6.0640    -1.5500 ca         1 3KM      -0.207000
     15 C24          2.6900     3.6740    -1.6790 ca         1 3KM      -0.254000
     16 C26          7.3360     0.1460     2.3490 c3         1 3KM      -0.096400
     17 C1           2.1980    -6.3900    -1.8830 ca         1 3KM      -0.122000
     18 O1           1.5820     2.4140     0.0080 os         1 3KM      -0.272900
     19 S1          -0.8280    -0.8230    -1.1740 sy         1 3KM       1.414200
     20 C2           1.3800    -7.1570    -1.0570 ca         1 3KM      -0.101000
     21 N2           3.1820    -0.5100     1.7060 n          1 3KM      -0.572800
     22 O2           1.2780     0.4590     2.3080 o          1 3KM      -0.547100
     23 C3           0.3130    -6.6040    -0.4180 ca         1 3KM      -0.120000
     24 O3          -2.2090    -0.6550    -0.8850 o          1 3KM      -0.619800
     25 N4           2.0320     8.4860    -0.1830 nz         1 3KM      -0.805600
     26 O4          -0.2430    -0.4490    -2.4140 o          1 3KM      -0.619800
     27 N5           9.6510     0.1110     1.5520 nz         1 3KM      -0.810600
     28 C9          -0.4790    -2.5360    -0.9570 ca         1 3KM      -0.315500
     29 C11          1.4640     0.0000     0.0000 c3         1 3KM       0.184500
     30 C12          1.9670     0.0000     1.4210 c          1 3KM       0.650100
     31 C14          1.9580     3.6170    -0.5000 ca         1 3KM       0.223100
     32 C16          4.9990     0.0700     3.2290 c3         1 3KM      -0.256400
     33 C18          5.4300    -0.2670     0.7890 c3         1 3KM      -0.256400
     34 C19          4.0740    -0.9640     0.6310 c3         1 3KM       0.140000
     35 C23          3.0750     4.8950    -2.2010 ca         1 3KM      -0.062000
     36 C27          8.3360    -0.5280     1.4080 c3         1 3KM       0.085800
     37 H1          -0.4970     0.4620     0.7350 hn         1 3KM       0.485800
     38 H2           0.6630     8.0230     1.9670 hn         1 3KM       0.457400
     39 H3           2.6020    -4.4830    -2.7200 ha         1 3KM       0.129000
     40 H4          -1.7030    -5.2080     0.7070 ha         1 3KM       0.151000
     41 H5          -2.1390    -2.8380     0.3680 ha         1 3KM       0.157000
     42 H6           1.2160    -2.4810    -2.2360 ha         1 3KM       0.137000
     43 H7           3.0550     1.2160    -0.7820 h1         1 3KM       0.069700
     44 H8           1.5560     1.2810    -1.7200 h1         1 3KM       0.069700
     45 H9           3.7340    -1.6670     3.3660 h1         1 3KM       0.088700
     46 H10          2.9220    -0.1460     3.7550 h1         1 3KM       0.088700
     47 H11          6.0590    -1.5850     2.3630 hc         1 3KM       0.075700
     48 H12          2.2660     4.5830     0.9960 ha         1 3KM       0.155000
     49 H13          3.0030     7.0220    -1.9810 ha         1 3KM       0.112000
     50 H14          3.7660     3.6830    -1.5500 ha         1 3KM       0.176000
     51 H15          7.2540     1.1990     2.1100 hc         1 3KM       0.070200
     52 H16          7.6790     0.0320     3.3710 hc         1 3KM       0.070200
     53 H17          3.0400    -6.8560    -2.3790 ha         1 3KM       0.137000
     54 H18          1.5990    -8.2100    -0.9270 ha         1 3KM       0.144000
     55 H19         -0.3090    -7.2180     0.2210 ha         1 3KM       0.149000
     56 H20          1.9770     8.4390    -1.1810 hn         1 3KM       0.466133
     57 H21          2.9800     8.6610     0.0870 hn         1 3KM       0.466133
     58 H22          9.9580     0.0360     2.5020 hn         1 3KM       0.458800
     59 H23          9.5620     1.0800     1.3180 hn         1 3KM       0.458800
     60 H25          1.8260    -0.8830    -0.5130 h1         1 3KM       0.089700
     61 H26          4.1990     0.0540     2.4980 hc         1 3KM       0.097700
     62 H27          5.0750     1.1250     3.4620 hc         1 3KM       0.097700
     63 H28          6.1300    -0.6700     0.0680 hc         1 3KM       0.097700
     64 H29          5.3110     0.7980     0.6280 hc         1 3KM       0.097700
     65 H30          3.6460    -0.7170    -0.3330 h1         1 3KM       0.088700
     66 H31          4.1900    -2.0370     0.7180 h1         1 3KM       0.088700
     67 H32          3.9400     4.9740    -2.8480 ha         1 3KM       0.153000
     68 H33          7.9940    -0.4390     0.3840 hx         1 3KM       0.112700
     69 H34          8.4220    -1.5740     1.6760 hx         1 3KM       0.112700
     70 H43          1.4460     9.2270     0.1480 hn         1 3KM       0.466133
     71 H53         10.3110    -0.3180     0.9340 hn         1 3KM       0.458800
     72 C25          1.6420     7.2710     0.3350 ce         1 3KM       0.541800
@<TRIPOS>BOND
     1    27    36 1
     2    36    16 1
     3    35    15 ar
     4    35    14 ar
     5    11    16 1
     6    11    32 1
     7    11    33 1
     8    15    31 ar
     9    10    32 1
    10    10    21 1
    11    34    33 1
    12    34    21 1
    13    14    13 ar
    14    21    30 1
    15    31    18 1
    16    31    12 ar
    17    18     9 1
    18    13    12 ar
    19    13    72 1
    20     2    72 2
    21    30    22 2
    22    30    29 1
    23    72    25 1
    24     9    29 1
    25    29     1 1
    26     6     7 ar
    27     6     3 ar
    28    23     3 ar
    29    23    20 ar
    30     7    28 ar
    31     1    19 1
    32     3     4 ar
    33    20    17 ar
    34    28    19 1
    35    28     8 ar
    36    26    19 2
    37     4     8 ar
    38     4     5 ar
    39    19    24 2
    40    17     5 ar
    41     1    37 1
    42     2    38 1
    43     5    39 1
    44     6    40 1
    45     7    41 1
    46     8    42 1
    47     9    43 1
    48     9    44 1
    49    10    45 1
    50    10    46 1
    51    11    47 1
    52    12    48 1
    53    14    49 1
    54    15    50 1
    55    16    51 1
    56    16    52 1
    57    17    53 1
    58    20    54 1
    59    23    55 1
    60    25    56 1
    61    25    57 1
    62    27    58 1
    63    27    59 1
    64    29    60 1
    65    32    61 1
    66    32    62 1
    67    33    63 1
    68    33    64 1
    69    34    65 1
    70    34    66 1
    71    35    67 1
    72    36    68 1
    73    36    69 1
    74    70    25 1
    75    71    27 1
@<TRIPOS>SUBSTRUCTURE
     1 3KM         1 TEMP              0 ****  ****    0 ROOT
