@<TRIPOS>MOLECULE
molecule
   20    21     1     0     0
SMALL
bcc


@<TRIPOS>ATOM
      1 NAM          0.0000     0.0000     0.0000 nv         1 3KN      -0.974200
      2 CAI          1.3900     0.0000     0.0000 ca         1 3KN       0.240600
      3 CAH          2.1060     0.0000     1.1950 ca         1 3KN      -0.277300
      4 CAL          3.4850    -0.0000     1.1540 ca         1 3KN       0.428200
      5 NAK          4.1340     0.0020     0.0040 nb         1 3KN      -0.696000
      6 CAJ          3.5060     0.0020    -1.1540 ca         1 3KN       0.435200
      7 CAG          2.1130    -0.0050    -1.2070 ca         1 3KN      -0.260800
      8 CAE          1.4100    -0.0050    -2.5060 cc         1 3KN       0.457900
      9 SAA          2.1680    -0.0040    -4.0990 ss         1 3KN      -0.370800
     10 NAD          0.1180    -0.0110    -2.6790 nd         1 3KN      -0.273000
     11 NAC         -0.3140    -0.0110    -3.8630 nd         1 3KN      -0.422000
     12 CAB          0.5610    -0.0060    -4.8280 cc         1 3KN       0.705300
     13 NAF          0.2810    -0.0070    -6.1850 nv         1 3KN      -0.978500
     14 H1          -0.5000    -0.8670     0.0260 hn         1 3KN       0.440800
     15 H2          -0.5000     0.8670     0.0210 hn         1 3KN       0.440800
     16 H3           1.5860    -0.0020     2.1450 ha         1 3KN       0.147000
     17 H4           4.0450    -0.0000     2.0810 h4         1 3KN       0.024100
     18 H5           4.0770     0.0010    -2.0750 h4         1 3KN       0.025100
     19 H6           1.0280    -0.0040    -6.8510 hn         1 3KN       0.453800
     20 H7          -0.6690    -0.0090    -6.5000 hn         1 3KN       0.453800
@<TRIPOS>BOND
     1     9    12 1
     2     9     8 1
     3     6     5 ar
     4     6     7 ar
     5     5     4 ar
     6    13    12 1
     7    12    11 2
     8     8     7 1
     9     8    10 2
    10     7     2 ar
    11     4     3 ar
    12    11    10 1
    13     2     3 ar
    14     2     1 1
    15     1    14 1
    16     1    15 1
    17     3    16 1
    18     4    17 1
    19     6    18 1
    20    13    19 1
    21    13    20 1
@<TRIPOS>SUBSTRUCTURE
     1 3KN         1 TEMP              0 ****  ****    0 ROOT
