@<TRIPOS>MOLECULE
3KN
   20    21     1     0     0
SMALL
bcc


@<TRIPOS>ATOM
      1 NAM          0.0000     0.0000     0.0000 nv         1 3KN      -0.544200
      2 CAI          1.3900     0.0000     0.0000 ca         1 3KN       0.099600
      3 CAH          2.1060     0.0000     1.1950 ca         1 3KN      -0.243300
      4 CAL          3.4850    -0.0000     1.1540 ca         1 3KN       0.413200
      5 NAK          4.1340     0.0020     0.0040 nb         1 3KN      -0.587000
      6 CAJ          3.5060     0.0020    -1.1540 ca         1 3KN       0.416200
      7 CAG          2.1130    -0.0050    -1.2070 ca         1 3KN      -0.246800
      8 CAE          1.4100    -0.0050    -2.5060 cc         1 3KN       0.449900
      9 SAA          2.1680    -0.0040    -4.0990 ss         1 3KN      -0.428800
     10 NAD          0.1180    -0.0110    -2.6790 nd         1 3KN      -0.224000
     11 NAC         -0.3140    -0.0110    -3.8630 nd         1 3KN      -0.403000
     12 CAB          0.5610    -0.0060    -4.8280 cc         1 3KN       0.542300
     13 NAF          0.2810    -0.0070    -6.1850 nv         1 3KN      -0.447500
     14 H1          -0.5000    -0.8670     0.0260 hn         1 3KN       0.283800
     15 H2          -0.5000     0.8670     0.0210 hn         1 3KN       0.283800
     16 H3           1.5860    -0.0020     2.1450 ha         1 3KN       0.119000
     17 H4           4.0450    -0.0000     2.0810 h4         1 3KN      -0.021900
     18 H5           4.0770     0.0010    -2.0750 h4         1 3KN      -0.013900
     19 H6           1.0280    -0.0040    -6.8510 hn         1 3KN       0.276300
     20 H7          -0.6690    -0.0090    -6.5000 hn         1 3KN       0.276300
@<TRIPOS>BOND
     1     1     2 1   
     2     1    14 1   
     3     1    15 1   
     4     2     3 ar  
     5     2     7 ar  
     6     3     4 ar  
     7     3    16 1   
     8     4     5 ar  
     9     4    17 1   
    10     5     6 ar  
    11     6     7 ar  
    12     6    18 1   
    13     7     8 1   
    14     8     9 1   
    15     8    10 2   
    16     9    12 1   
    17    10    11 1   
    18    11    12 2   
    19    12    13 1   
    20    13    19 1   
    21    13    20 1   
@<TRIPOS>SUBSTRUCTURE
     1 3KN         1 TEMP              0 ****  ****    0 ROOT
