@<TRIPOS>MOLECULE
3KO
   70    73     1     0     0
SMALL
bcc


@<TRIPOS>ATOM
      1 C2           0.0000     0.0000     0.0000 c2         1 3KO       0.399800
      2 C3           1.8610     0.0000     1.2550 c          1 3KO       0.637500
      3 C4           0.6640     0.0080     2.1820 c3         1 3KO       0.022200
      4 C7           0.2560     6.1640     2.2460 c          1 3KO       0.604100
      5 N1           1.3730     0.0000     0.0000 n          1 3KO      -0.075300
      6 C9           0.6630     1.2700     3.0500 c3         1 3KO      -0.011400
      7 C13         -0.5150     7.1070     1.3580 c3         1 3KO      -0.092400
      8 C10          0.7050     3.8060     2.9860 c3         1 3KO       0.065000
      9 C12          0.6650    -1.2450     3.0590 c3         1 3KO      -0.031400
     10 C27          0.8840    -6.2360     3.0430 c3         1 3KO      -0.022900
     11 C28          1.4190    10.3190     0.8590 c3         1 3KO      -0.023900
     12 C29         -0.0340    10.8000     0.7010 c3         1 3KO      -0.023900
     13 C30         -0.4420    -6.3290     3.8000 c3         1 3KO      -0.025400
     14 C26         -0.6150    -5.0900     4.6820 c3         1 3KO      -0.022900
     15 C25         -0.6150    -3.8360     3.8050 c3         1 3KO      -0.026900
     16 C24          0.8830    -4.9830     2.1660 c3         1 3KO      -0.026900
     17 C23          1.3560     8.7930     1.0750 c3         1 3KO      -0.028400
     18 C22         -0.9300     9.5500     0.8250 c3         1 3KO      -0.028400
     19 C14         -0.9410     4.1770     1.2890 c3         1 3KO       0.053000
     20 C16          0.5820     2.5060     2.1520 c3         1 3KO      -0.072700
     21 C17          2.2010     0.0020    -1.2080 c3         1 3KO       0.085300
     22 C18         -0.8350     2.6590     1.5420 c3         1 3KO      -0.058400
     23 C19          0.7120    -2.4890     2.1710 c3         1 3KO      -0.042400
     24 C20         -0.0680     8.5450     1.6310 c3         1 3KO      -0.034700
     25 C21          0.7110    -3.7440     3.0480 c3         1 3KO      -0.046700
     26 N5          -0.4980     0.0040     1.2800 nu         1 3KO      -0.482200
     27 N6           0.0290     4.8380     2.1800 n          1 3KO      -0.171800
     28 N8          -0.7360    -0.0010    -1.0750 n2         1 3KO      -0.808100
     29 O11          3.0290    -0.0000     1.5790 o          1 3KO      -0.621500
     30 O15          1.0820     6.6000     3.0210 o          1 3KO      -0.647100
     31 H1          -0.1920     1.2500     3.7140 hc         1 3KO       0.036700
     32 H2           1.5740     1.3070     3.6340 hc         1 3KO       0.036700
     33 H3          -0.3260     6.8610     0.3200 hc         1 3KO       0.030700
     34 H4          -1.5740     7.0130     1.5650 hc         1 3KO       0.030700
     35 H5           1.7470     4.0640     3.1270 h1         1 3KO       0.030200
     36 H6           0.2060     3.6880     3.9400 h1         1 3KO       0.030200
     37 H7           1.5320    -1.2320     3.7080 hc         1 3KO       0.036200
     38 H8          -0.2360    -1.2650     3.6610 hc         1 3KO       0.036200
     39 H9           1.0030    -7.1120     2.4180 hc         1 3KO       0.013700
     40 H10          1.7000    -6.1780     3.7530 hc         1 3KO       0.013700
     41 H11          1.8740    10.7950     1.7190 hc         1 3KO       0.011200
     42 H12          1.9820    10.5420    -0.0390 hc         1 3KO       0.011200
     43 H13         -0.1680    11.2560    -0.2730 hc         1 3KO       0.011200
     44 H14         -0.2760    11.5080     1.4840 hc         1 3KO       0.011200
     45 H15         -1.2590    -6.3810     3.0910 hc         1 3KO       0.013700
     46 H16         -0.4400    -7.2150     4.4230 hc         1 3KO       0.013700
     47 H17          0.2050    -5.0340     5.3890 hc         1 3KO       0.013700
     48 H18         -1.5550    -5.1560     5.2160 hc         1 3KO       0.013700
     49 H19         -0.7350    -2.9600     4.4300 hc         1 3KO       0.016200
     50 H20         -1.4310    -3.8940     3.0950 hc         1 3KO       0.016200
     51 H21          0.0640    -5.0380     1.4600 hc         1 3KO       0.016200
     52 H22          1.8240    -4.9170     1.6330 hc         1 3KO       0.016200
     53 H23          1.4900     8.2720     0.1340 hc         1 3KO       0.018450
     54 H24          2.1020     8.4830     1.7970 hc         1 3KO       0.018450
     55 H25         -1.1580     9.1510    -0.1560 hc         1 3KO       0.018450
     56 H26         -1.8380     9.7890     1.3660 hc         1 3KO       0.018450
     57 H27         -1.9430     4.5190     1.5190 h1         1 3KO       0.015200
     58 H28         -0.6990     4.3950     0.2560 h1         1 3KO       0.015200
     59 H29          1.3350     2.4770     1.3730 hc         1 3KO       0.044700
     60 H30          1.9650     0.8730    -1.8060 h1         1 3KO       0.022033
     61 H31          3.2470     0.0280    -0.9290 h1         1 3KO       0.022033
     62 H32          2.0020    -0.8950    -1.7830 h1         1 3KO       0.022033
     63 H33         -1.5910     2.3370     2.2480 hc         1 3KO       0.037700
     64 H34         -0.9120     2.1110     0.6110 hc         1 3KO       0.037700
     65 H35         -0.1560    -2.5020     1.5220 hc         1 3KO       0.024200
     66 H36          1.6120    -2.4700     1.5700 hc         1 3KO       0.024200
     67 H37         -0.1080     8.7720     2.6890 hc         1 3KO       0.050700
     68 H38          1.5270    -3.6930     3.7590 hc         1 3KO       0.033700
     69 H39         -0.3030    -0.0020    -1.9770 hn         1 3KO       0.336400
     70 H41         -1.4630     0.0060     1.5470 hn         1 3KO       0.338800
@<TRIPOS>BOND
     1     1     5 1   
     2     1    26 1   
     3     1    28 2   
     4     2     3 1   
     5     2     5 1   
     6     2    29 2   
     7     3     6 1   
     8     3     9 1   
     9     3    26 1   
    10     4     7 1   
    11     4    27 1   
    12     4    30 2   
    13     5    21 1   
    14     6    20 1   
    15     6    31 1   
    16     6    32 1   
    17     7    24 1   
    18     7    33 1   
    19     7    34 1   
    20     8    20 1   
    21     8    27 1   
    22     8    35 1   
    23     8    36 1   
    24     9    23 1   
    25     9    37 1   
    26     9    38 1   
    27    10    13 1   
    28    10    16 1   
    29    10    39 1   
    30    10    40 1   
    31    11    12 1   
    32    11    17 1   
    33    11    41 1   
    34    11    42 1   
    35    12    18 1   
    36    12    43 1   
    37    12    44 1   
    38    13    14 1   
    39    13    45 1   
    40    13    46 1   
    41    14    15 1   
    42    14    47 1   
    43    14    48 1   
    44    15    25 1   
    45    15    49 1   
    46    15    50 1   
    47    16    25 1   
    48    16    51 1   
    49    16    52 1   
    50    17    24 1   
    51    17    53 1   
    52    17    54 1   
    53    18    24 1   
    54    18    55 1   
    55    18    56 1   
    56    19    22 1   
    57    19    27 1   
    58    19    57 1   
    59    19    58 1   
    60    20    22 1   
    61    20    59 1   
    62    21    60 1   
    63    21    61 1   
    64    21    62 1   
    65    22    63 1   
    66    22    64 1   
    67    23    25 1   
    68    23    65 1   
    69    23    66 1   
    70    24    67 1   
    71    25    68 1   
    72    26    70 1   
    73    28    69 1   
@<TRIPOS>SUBSTRUCTURE
     1 3KO         1 TEMP              0 ****  ****    0 ROOT
