@<TRIPOS>MOLECULE
3KP
   11    10     1     0     0
SMALL
bcc


@<TRIPOS>ATOM
      1 CL         -0.0260   -0.0800    0.0520 cl        1 3KP     -0.156400
      2 C1          1.7340   -0.0240    0.0150 c3        1 3KP      0.026700
      3 CL1         1.9170   -1.1930   -2.4260 cl        1 3KP     -0.160400
      4 C2          2.2990    0.0070    1.4240 c3        1 3KP      0.018000
      5 CL2         1.9290    1.5010    2.2510 cl        1 3KP     -0.160400
      6 C3          2.2930   -1.2280   -0.7200 c3        1 3KP      0.018000
      7 H1          1.9900    0.9230   -0.5310 h1        1 3KP      0.102700
      8 H2          3.4140   -0.0700    1.3890 h1        1 3KP      0.077700
      9 H2A         1.8830   -0.8230    2.0450 h1        1 3KP      0.077700
     10 H3          3.4080   -1.2410   -0.6410 h1        1 3KP      0.077700
     11 H3A         1.8750   -2.1810   -0.3120 h1        1 3KP      0.077700
@<TRIPOS>BOND
     1    1    2 1   
     2    2    4 1   
     3    2    6 1   
     4    2    7 1   
     5    3    6 1   
     6    4    5 1   
     7    4    8 1   
     8    4    9 1   
     9    6   10 1   
    10    6   11 1   
@<TRIPOS>SUBSTRUCTURE
     1 3KP         1 TEMP              0 ****  ****    0 ROOT
