@<TRIPOS>MOLECULE
molecule
   11    10     1     0     0
SMALL
bcc


@<TRIPOS>ATOM
      1 Cl           0.0000     0.0000     0.0000 cl         1 3KP      -0.161400
      2 C1           1.8030     0.0000     0.0000 c3         1 3KP       0.030700
      3 Cl1          1.7120    -1.2490    -2.4210 cl         1 3KP      -0.171400
      4 C2           2.3130     0.0000     1.4420 c3         1 3KP       0.037000
      5 Cl2          1.7120     1.4720     2.2920 cl         1 3KP      -0.171400
      6 C3           2.3130    -1.2490    -0.7210 c3         1 3KP       0.037000
      7 H1           2.1640     0.8850    -0.5110 h1         1 3KP       0.097700
      8 H2           3.3970     0.0000     1.4420 h1         1 3KP       0.075200
      9 H2A          1.9520    -0.8840     1.9530 h1         1 3KP       0.075200
     10 H3           1.9520    -2.1340    -0.2100 h1         1 3KP       0.075200
     11 H3A          3.3970    -1.2490    -0.7210 h1         1 3KP       0.075200
@<TRIPOS>BOND
     1     1     2 1   
     2     2     4 1   
     3     2     6 1   
     4     3     6 1   
     5     4     5 1   
     6     2     7 1   
     7     4     8 1   
     8     4     9 1   
     9     6    10 1   
    10     6    11 1   
@<TRIPOS>SUBSTRUCTURE
     1 3KP         1 TEMP              0 ****  ****    0 ROOT
