@<TRIPOS>MOLECULE
3KQ
   55    57     1     0     0
SMALL
bcc


@<TRIPOS>ATOM
      1 C1           0.0000     0.0000     0.0000 ca         1 3KQ      -0.036300
      2 C2           1.3870     0.0000     0.0000 ca         1 3KQ      -0.139400
      3 C3           2.0620     0.0000     1.2070 ca         1 3KQ       0.414200
      4 C5           0.0830    -0.0000     2.3870 ca         1 3KQ       0.414200
      5 C6          -0.6600    -0.0000     1.2200 ca         1 3KQ      -0.139400
      6 O25         -0.1330     6.0840    -0.4310 o          1 3KQ      -0.616100
      7 C24         -1.3190     5.9160    -0.2420 c          1 3KQ       0.563100
      8 N26         -1.9360     6.5590     0.7690 ns         1 3KQ      -0.206900
      9 C27         -1.1760     7.4600     1.6380 c3         1 3KQ       0.115300
     10 C28         -2.0940     8.0460     2.6810 ca         1 3KQ      -0.125300
     11 C33         -2.2680     7.4010     3.8900 ca         1 3KQ      -0.084000
     12 C32         -3.1090     7.9390     4.8460 ca         1 3KQ      -0.103000
     13 C31         -3.7760     9.1220     4.5920 ca         1 3KQ      -0.094000
     14 C30         -3.6020     9.7680     3.3810 ca         1 3KQ      -0.103000
     15 C29         -2.7550     9.2320     2.4280 ca         1 3KQ      -0.084000
     16 C23         -2.1020     4.9900    -1.1360 c3         1 3KQ       0.158400
     17 C17         -1.7700     3.5280    -2.9800 ca         1 3KQ       0.230100
     18 C16         -2.4420     3.9550    -4.1160 ca         1 3KQ       0.036100
     19 O20         -2.5670     5.2850    -4.3750 os         1 3KQ      -0.319900
     20 C21         -1.5670     5.8810    -5.2030 c3         1 3KQ       0.255700
     21 C15         -2.9670     3.0200    -5.0030 ca         1 3KQ       0.166100
     22 O18         -3.6230     3.4380    -6.1160 os         1 3KQ      -0.289900
     23 C19         -4.1370     2.4260    -6.9840 c3         1 3KQ       0.240700
     24 C14         -2.8210     1.6590    -4.7540 ca         1 3KQ      -0.226000
     25 C13         -2.1630     1.2250    -3.6400 ca         1 3KQ      -0.064000
     26 C12         -1.6270     2.1510    -2.7340 ca         1 3KQ      -0.190600
     27 C10         -1.0220     1.4290    -1.7230 c          1 3KQ       0.573700
     28 O11         -0.6150     2.3480    -1.0430 o          1 3KQ      -0.562100
     29 C9          -0.7710     0.0070    -1.2940 c3         1 3KQ      -0.024100
     30 Cl7         -2.3940     0.0000     1.2820 cl         1 3KQ       0.000600
     31 N4           1.4010    -0.0010     2.3480 nb         1 3KQ      -0.560000
     32 Cl8          2.2670    -0.0010    -1.4980 cl         1 3KQ       0.000600
     33 H1           3.1450    -0.0010     1.2160 h4         1 3KQ      -0.008900
     34 H2          -0.4250    -0.0010     3.3440 h4         1 3KQ      -0.008900
     35 H3          -2.9190     6.4370     0.9130 hn         1 3KQ       0.173500
     36 H4          -0.7470     8.2580     1.0440 h1         1 3KQ       0.029700
     37 H5          -0.3820     6.9060     2.1260 h1         1 3KQ       0.029700
     38 H6          -1.7450     6.4730     4.0890 ha         1 3KQ       0.108500
     39 H7          -3.2460     7.4330     5.7940 ha         1 3KQ       0.104000
     40 H8          -4.4370     9.5430     5.3400 ha         1 3KQ       0.103000
     41 H9          -4.1220    10.6970     3.1830 ha         1 3KQ       0.104000
     42 H10         -2.6180     9.7380     1.4800 ha         1 3KQ       0.108500
     43 H11         -2.8940     5.5440    -1.6240 h1         1 3KQ       0.010200
     44 H12         -2.5320     4.1920    -0.5430 h1         1 3KQ       0.010200
     45 H13         -1.9290     5.9400    -6.2220 h1         1 3KQ      -0.005633
     46 H14         -1.3460     6.8780    -4.8410 h1         1 3KQ      -0.005633
     47 H15         -0.6670     5.2790    -5.1730 h1         1 3KQ      -0.005633
     48 H16         -4.8420     1.8090    -6.4410 h1         1 3KQ      -0.000300
     49 H17         -3.3210     1.8110    -7.3440 h1         1 3KQ      -0.000300
     50 H18         -4.6370     2.8920    -7.8250 h1         1 3KQ      -0.000300
     51 H19         -3.2330     0.9380    -5.4500 ha         1 3KQ       0.124000
     52 H20         -2.0550     0.1640    -3.4550 ha         1 3KQ       0.109000
     53 H21         -1.7180    -0.5000    -1.1530 hc         1 3KQ       0.046700
     54 H22         -0.1990    -0.5050    -2.0590 hc         1 3KQ       0.046700
     55 O22         -1.2320     4.4340    -2.1240 os         1 3KQ      -0.272900
@<TRIPOS>BOND
     1     1     2 ar  
     2     1     5 ar  
     3     1    29 1   
     4     2     3 ar  
     5     2    32 1   
     6     3    31 ar  
     7     3    33 1   
     8     4     5 ar  
     9     4    31 ar  
    10     4    34 1   
    11     5    30 1   
    12     6     7 2   
    13     7     8 1   
    14     7    16 1   
    15     8     9 1   
    16     8    35 1   
    17     9    10 1   
    18     9    36 1   
    19     9    37 1   
    20    10    11 ar  
    21    10    15 ar  
    22    11    12 ar  
    23    11    38 1   
    24    12    13 ar  
    25    12    39 1   
    26    13    14 ar  
    27    13    40 1   
    28    14    15 ar  
    29    14    41 1   
    30    15    42 1   
    31    16    43 1   
    32    16    44 1   
    33    16    55 1   
    34    17    18 ar  
    35    17    26 ar  
    36    17    55 1   
    37    18    19 1   
    38    18    21 ar  
    39    19    20 1   
    40    20    45 1   
    41    20    46 1   
    42    20    47 1   
    43    21    22 1   
    44    21    24 ar  
    45    22    23 1   
    46    23    48 1   
    47    23    49 1   
    48    23    50 1   
    49    24    25 ar  
    50    24    51 1   
    51    25    26 ar  
    52    25    52 1   
    53    26    27 1   
    54    27    28 2   
    55    27    29 1   
    56    29    53 1   
    57    29    54 1   
@<TRIPOS>SUBSTRUCTURE
     1 3KQ         1 TEMP              0 ****  ****    0 ROOT
