@<TRIPOS>MOLECULE
molecule
   55    57     1     0     0
SMALL
bcc


@<TRIPOS>ATOM
      1 C1           0.0000     0.0000     0.0000 ca         1 3KQ      -0.024300
      2 C2           1.3870     0.0000     0.0000 ca         1 3KQ      -0.076900
      3 C3           2.0620     0.0000     1.2070 ca         1 3KQ       0.433700
      4 C5           0.0830    -0.0000     2.3870 ca         1 3KQ       0.433700
      5 C6          -0.6600    -0.0000     1.2200 ca         1 3KQ      -0.076900
      6 O25         -0.1330     6.0840    -0.4310 o          1 3KQ      -0.574100
      7 C24         -1.3190     5.9160    -0.2420 c          1 3KQ       0.658100
      8 N26         -1.9360     6.5590     0.7690 ns         1 3KQ      -0.590900
      9 C27         -1.1760     7.4600     1.6380 c3         1 3KQ       0.165300
     10 C28         -2.0940     8.0460     2.6810 ca         1 3KQ      -0.118300
     11 C33         -2.2680     7.4010     3.8900 ca         1 3KQ      -0.112000
     12 C32         -3.1090     7.9390     4.8460 ca         1 3KQ      -0.131500
     13 C31         -3.7760     9.1220     4.5920 ca         1 3KQ      -0.121000
     14 C30         -3.6020     9.7680     3.3810 ca         1 3KQ      -0.131500
     15 C29         -2.7550     9.2320     2.4280 ca         1 3KQ      -0.112000
     16 C23         -2.1020     4.9900    -1.1360 c3         1 3KQ       0.085400
     17 C17         -1.7700     3.5280    -2.9800 ca         1 3KQ       0.216100
     18 C16         -2.4420     3.9550    -4.1160 ca         1 3KQ       0.042100
     19 O20         -2.5670     5.2850    -4.3750 os         1 3KQ      -0.334900
     20 C21         -1.5670     5.8810    -5.2030 c3         1 3KQ       0.136700
     21 C15         -2.9670     3.0200    -5.0030 ca         1 3KQ       0.158100
     22 O18         -3.6230     3.4380    -6.1160 os         1 3KQ      -0.308900
     23 C19         -4.1370     2.4260    -6.9840 c3         1 3KQ       0.124700
     24 C14         -2.8210     1.6590    -4.7540 ca         1 3KQ      -0.237000
     25 C13         -2.1630     1.2250    -3.6400 ca         1 3KQ      -0.086000
     26 C12         -1.6270     2.1510    -2.7340 ca         1 3KQ      -0.185600
     27 C10         -1.0220     1.4290    -1.7230 c          1 3KQ       0.541700
     28 O11         -0.6150     2.3480    -1.0430 o          1 3KQ      -0.529100
     29 C9          -0.7710     0.0070    -1.2940 c3         1 3KQ      -0.099100
     30 Cl7         -2.3940     0.0000     1.2820 cl         1 3KQ      -0.087900
     31 N4           1.4010    -0.0010     2.3480 nb         1 3KQ      -0.664000
     32 Cl8          2.2670    -0.0010    -1.4980 cl         1 3KQ      -0.087900
     33 H1           3.1450    -0.0010     1.2160 h4         1 3KQ       0.040600
     34 H2          -0.4250    -0.0010     3.3440 h4         1 3KQ       0.040600
     35 H3          -2.9190     6.4370     0.9130 hn         1 3KQ       0.314500
     36 H4          -0.7470     8.2580     1.0440 h1         1 3KQ       0.060200
     37 H5          -0.3820     6.9060     2.1260 h1         1 3KQ       0.060200
     38 H6          -1.7450     6.4730     4.0890 ha         1 3KQ       0.135500
     39 H7          -3.2460     7.4330     5.7940 ha         1 3KQ       0.132000
     40 H8          -4.4370     9.5430     5.3400 ha         1 3KQ       0.130000
     41 H9          -4.1220    10.6970     3.1830 ha         1 3KQ       0.132000
     42 H10         -2.6180     9.7380     1.4800 ha         1 3KQ       0.135500
     43 H11         -2.8940     5.5440    -1.6240 h1         1 3KQ       0.052200
     44 H12         -2.5320     4.1920    -0.5430 h1         1 3KQ       0.052200
     45 H13         -1.9290     5.9400    -6.2220 h1         1 3KQ       0.039700
     46 H14         -1.3460     6.8780    -4.8410 h1         1 3KQ       0.039700
     47 H15         -0.6670     5.2790    -5.1730 h1         1 3KQ       0.039700
     48 H16         -4.8420     1.8090    -6.4410 h1         1 3KQ       0.044700
     49 H17         -3.3210     1.8110    -7.3440 h1         1 3KQ       0.044700
     50 H18         -4.6370     2.8920    -7.8250 h1         1 3KQ       0.044700
     51 H19         -3.2330     0.9380    -5.4500 ha         1 3KQ       0.139000
     52 H20         -2.0550     0.1640    -3.4550 ha         1 3KQ       0.136000
     53 H21         -1.7180    -0.5000    -1.1530 hc         1 3KQ       0.084700
     54 H22         -0.1990    -0.5050    -2.0590 hc         1 3KQ       0.084700
     55 O22         -1.2320     4.4340    -2.1240 os         1 3KQ      -0.290900
@<TRIPOS>BOND
     1    23    22 1
     2    22    21 1
     3    20    19 1
     4    21    24 ar
     5    21    18 ar
     6    19    18 1
     7    24    25 ar
     8    18    17 ar
     9    25    26 ar
    10    17    26 ar
    11    17    55 1
    12    26    27 1
    13    16    55 1
    14    16     7 1
    15     6     7 2
    16     7     8 1
    17    27    29 1
    18    27    28 2
    19    29     1 1
    20     8     9 1
    21    30     5 1
    22     1     5 ar
    23     1     2 ar
    24     9    10 1
    25     5     4 ar
    26    32     2 1
    27    15    10 ar
    28    15    14 ar
    29     2     3 ar
    30    10    11 ar
    31    14    13 ar
    32     4    31 ar
    33     3    31 ar
    34    11    12 ar
    35    13    12 ar
    36     3    33 1
    37     4    34 1
    38     8    35 1
    39     9    36 1
    40     9    37 1
    41    11    38 1
    42    12    39 1
    43    13    40 1
    44    14    41 1
    45    15    42 1
    46    16    43 1
    47    16    44 1
    48    20    45 1
    49    20    46 1
    50    20    47 1
    51    23    48 1
    52    23    49 1
    53    23    50 1
    54    24    51 1
    55    25    52 1
    56    29    53 1
    57    29    54 1
@<TRIPOS>SUBSTRUCTURE
     1 3KQ         1 TEMP              0 ****  ****    0 ROOT
