@<TRIPOS>MOLECULE
molecule
   58    60     1     0     0
SMALL
bcc


@<TRIPOS>ATOM
      1 S1           1.8140     0.0000     0.0000 sy         1 3KR       1.215300
      2 C2           2.2530     1.5490     0.7140 ca         1 3KR      -0.340500
      3 C3           2.4260     1.6550     2.0820 ca         1 3KR       0.003500
      4 C4           2.7710     2.8690     2.6430 ca         1 3KR      -0.201000
      5 C5           2.9460     3.9820     1.8340 ca         1 3KR       0.190100
      6 C6           2.7720     3.8730     0.4620 ca         1 3KR      -0.201000
      7 C7           2.4330     2.6560    -0.0960 ca         1 3KR       0.003500
      8 C8           0.0000     0.0000     0.0000 c3         1 3KR      -0.241200
      9 C9          -0.5040     0.0000     1.4200 c          1 3KR       0.590500
     10 N10          0.0480    -0.8250     2.3300 ne         1 3KR      -0.076100
     11 O11         -0.3590    -0.8260     3.4780 o          1 3KR      -0.056300
     12 O12          2.3130     0.0720    -1.3280 o          1 3KR      -0.606300
     13 O13          2.3120    -0.9640     0.9180 o          1 3KR      -0.606300
     14 O14         -1.4020     0.7400     1.7420 o          1 3KR      -0.446100
     15 C15         -0.5110     1.2490    -0.7250 c3         1 3KR      -0.050400
     16 C16         -0.0460     1.2140    -2.1820 c3         1 3KR       0.131300
     17 N17         -0.5620     0.0030    -2.8330 n3         1 3KR      -0.708600
     18 C18         -0.0460    -1.2100    -2.1840 c3         1 3KR       0.131300
     19 C19         -0.5110    -1.2480    -0.7250 c3         1 3KR      -0.050400
     20 C20         -0.2510     0.0040    -4.2690 c3         1 3KR       0.166800
     21 C21         -1.0100    -1.1340    -4.9550 c3         1 3KR       0.137400
     22 O22         -2.4160    -0.8870    -4.8720 os         1 3KR      -0.413600
     23 C23         -3.2190    -1.8970    -5.4860 c3         1 3KR       0.126700
     24 O24          3.2850     5.1780     2.3850 os         1 3KR      -0.238200
     25 C25          3.5560     5.2120     3.7160 ca         1 3KR       0.067100
     26 C26          4.7640     4.7220     4.1920 ca         1 3KR      -0.100500
     27 C27          5.0390     4.7580     5.5460 ca         1 3KR      -0.159000
     28 C28          4.1080     5.2840     6.4280 ca         1 3KR       0.130100
     29 C29          2.9010     5.7750     5.9530 ca         1 3KR      -0.159000
     30 C30          2.6280     5.7450     4.6000 ca         1 3KR      -0.100500
     31 O31          4.3790     5.3190     7.7600 os         1 3KR      -0.337900
     32 C32          3.3750     5.8740     8.6120 c3         1 3KR       0.795700
     33 F33          2.1950     5.1330     8.4870 f          1 3KR      -0.202300
     34 F34          3.8140     5.8310     9.9400 f          1 3KR      -0.202300
     35 F35          3.1320     7.2020     8.2440 f          1 3KR      -0.202300
     36 H3           2.2900     0.7860     2.7140 ha         1 3KR       0.155000
     37 H4           2.9070     2.9510     3.7150 ha         1 3KR       0.154000
     38 H6           2.9100     4.7400    -0.1730 ha         1 3KR       0.154000
     39 H7           2.2970     2.5700    -1.1670 ha         1 3KR       0.155000
     40 H15         -1.5940     1.2660    -0.6930 hc         1 3KR       0.073450
     41 H15A        -0.1160     2.1340    -0.2420 hc         1 3KR       0.073450
     42 H16         -0.4200     2.0880    -2.7000 h1         1 3KR       0.059700
     43 H16A         1.0370     1.2050    -2.2140 h1         1 3KR       0.059700
     44 H18         -0.4220    -2.0830    -2.7030 h1         1 3KR       0.059700
     45 H18A         1.0360    -1.2020    -2.2160 h1         1 3KR       0.059700
     46 H19         -1.5940    -1.2660    -0.6920 hc         1 3KR       0.073450
     47 H19A        -0.1140    -2.1330    -0.2430 hc         1 3KR       0.073450
     48 H20         -0.5500     0.9500    -4.7020 h1         1 3KR       0.050200
     49 H20A         0.8140    -0.1370    -4.4080 h1         1 3KR       0.050200
     50 H21         -0.7140    -1.1890    -5.9960 h1         1 3KR       0.024700
     51 H21A        -0.7780    -2.0710    -4.4640 h1         1 3KR       0.024700
     52 H23         -4.2630    -1.7170    -5.2570 h1         1 3KR       0.028700
     53 H23A        -2.9290    -2.8700    -5.1080 h1         1 3KR       0.028700
     54 H23B        -3.0750    -1.8700    -6.5600 h1         1 3KR       0.028700
     55 H26          5.4910     4.3110     3.5020 ha         1 3KR       0.155500
     56 H27          5.9820     4.3750     5.9170 ha         1 3KR       0.158000
     57 H29          2.1750     6.1880     6.6430 ha         1 3KR       0.158000
     58 H30          1.6850     6.1290     4.2290 ha         1 3KR       0.155500
@<TRIPOS>BOND
     1     1     2 1
     2     1     8 1
     3     1    12 2
     4     1    13 2
     5     2     3 ar
     6     2     7 ar
     7     3     4 ar
     8     4     5 ar
     9     5     6 ar
    10     5    24 1
    11     6     7 ar
    12     8     9 1
    13     8    15 1
    14     8    19 1
    15     9    10 1
    16     9    14 2
    17    10    11 2
    18    15    16 1
    19    16    17 1
    20    17    18 1
    21    17    20 1
    22    18    19 1
    23    20    21 1
    24    21    22 1
    25    22    23 1
    26    24    25 1
    27    25    26 ar
    28    25    30 ar
    29    26    27 ar
    30    27    28 ar
    31    28    29 ar
    32    28    31 1
    33    29    30 ar
    34    31    32 1
    35    32    33 1
    36    32    34 1
    37    32    35 1
    38     3    36 1
    39     4    37 1
    40     6    38 1
    41     7    39 1
    42    15    40 1
    43    15    41 1
    44    16    42 1
    45    16    43 1
    46    18    44 1
    47    18    45 1
    48    19    46 1
    49    19    47 1
    50    20    48 1
    51    20    49 1
    52    21    50 1
    53    21    51 1
    54    23    52 1
    55    23    53 1
    56    23    54 1
    57    26    55 1
    58    27    56 1
    59    29    57 1
    60    30    58 1
@<TRIPOS>SUBSTRUCTURE
     1 3KR         1 TEMP              0 ****  ****    0 ROOT
