@<TRIPOS>MOLECULE
3KR
   58    60     1     0     0
SMALL
bcc


@<TRIPOS>ATOM
      1 S1           1.8140     0.0000     0.0000 sy         1 3KR       0.894300
      2 C2           2.2530     1.5490     0.7140 ca         1 3KR      -0.203500
      3 C3           2.4260     1.6550     2.0820 ca         1 3KR       0.038500
      4 C4           2.7710     2.8690     2.6430 ca         1 3KR      -0.196500
      5 C5           2.9460     3.9820     1.8340 ca         1 3KR       0.196100
      6 C6           2.7720     3.8730     0.4620 ca         1 3KR      -0.196500
      7 C7           2.4330     2.6560    -0.0960 ca         1 3KR       0.038500
      8 C8           0.0000     0.0000     0.0000 c3         1 3KR      -0.099200
      9 C9          -0.5040     0.0000     1.4200 c          1 3KR       0.615500
     10 N10          0.0480    -0.8250     2.3300 ne         1 3KR       0.042900
     11 O11         -0.3590    -0.8260     3.4780 o          1 3KR      -0.143300
     12 O12          2.3130     0.0720    -1.3280 o          1 3KR      -0.571800
     13 O13          2.3120    -0.9640     0.9180 o          1 3KR      -0.571800
     14 O14         -1.4020     0.7400     1.7420 o          1 3KR      -0.479100
     15 C15         -0.5110     1.2490    -0.7250 c3         1 3KR       0.011100
     16 C16         -0.0460     1.2140    -2.1820 c3         1 3KR       0.093300
     17 N17         -0.5620     0.0030    -2.8330 n3         1 3KR      -0.516600
     18 C18         -0.0460    -1.2100    -2.1840 c3         1 3KR       0.093300
     19 C19         -0.5110    -1.2480    -0.7250 c3         1 3KR       0.011100
     20 C20         -0.2510     0.0040    -4.2690 c3         1 3KR       0.150800
     21 C21         -1.0100    -1.1340    -4.9550 c3         1 3KR       0.204400
     22 O22         -2.4160    -0.8870    -4.8720 os         1 3KR      -0.403600
     23 C23         -3.2190    -1.8970    -5.4860 c3         1 3KR       0.250700
     24 O24          3.2850     5.1780     2.3850 os         1 3KR      -0.213200
     25 C25          3.5560     5.2120     3.7160 ca         1 3KR       0.070100
     26 C26          4.7640     4.7220     4.1920 ca         1 3KR      -0.072000
     27 C27          5.0390     4.7580     5.5460 ca         1 3KR      -0.143500
     28 C28          4.1080     5.2840     6.4280 ca         1 3KR       0.138100
     29 C29          2.9010     5.7750     5.9530 ca         1 3KR      -0.143500
     30 C30          2.6280     5.7450     4.6000 ca         1 3KR      -0.072000
     31 O31          4.3790     5.3190     7.7600 os         1 3KR      -0.312900
     32 C32          3.3750     5.8740     8.6120 c3         1 3KR       0.756700
     33 F33          2.1950     5.1330     8.4870 f          1 3KR      -0.195300
     34 F34          3.8140     5.8310     9.9400 f          1 3KR      -0.195300
     35 F35          3.1320     7.2020     8.2440 f          1 3KR      -0.195300
     36 H3           2.2900     0.7860     2.7140 ha         1 3KR       0.125000
     37 H4           2.9070     2.9510     3.7150 ha         1 3KR       0.129000
     38 H6           2.9100     4.7400    -0.1730 ha         1 3KR       0.129000
     39 H7           2.2970     2.5700    -1.1670 ha         1 3KR       0.125000
     40 H15         -1.5940     1.2660    -0.6930 hc         1 3KR       0.037700
     41 H15A        -0.1160     2.1340    -0.2420 hc         1 3KR       0.037700
     42 H16         -0.4200     2.0880    -2.7000 h1         1 3KR       0.043950
     43 H16A         1.0370     1.2050    -2.2140 h1         1 3KR       0.043950
     44 H18         -0.4220    -2.0830    -2.7030 h1         1 3KR       0.043950
     45 H18A         1.0360    -1.2020    -2.2160 h1         1 3KR       0.043950
     46 H19         -1.5940    -1.2660    -0.6920 hc         1 3KR       0.037700
     47 H19A        -0.1140    -2.1330    -0.2430 hc         1 3KR       0.037700
     48 H20         -0.5500     0.9500    -4.7020 h1         1 3KR       0.020200
     49 H20A         0.8140    -0.1370    -4.4080 h1         1 3KR       0.020200
     50 H21         -0.7140    -1.1890    -5.9960 h1         1 3KR      -0.007300
     51 H21A        -0.7780    -2.0710    -4.4640 h1         1 3KR      -0.007300
     52 H23         -4.2630    -1.7170    -5.2570 h1         1 3KR      -0.014633
     53 H23A        -2.9290    -2.8700    -5.1080 h1         1 3KR      -0.014633
     54 H23B        -3.0750    -1.8700    -6.5600 h1         1 3KR      -0.014633
     55 H26          5.4910     4.3110     3.5020 ha         1 3KR       0.122000
     56 H27          5.9820     4.3750     5.9170 ha         1 3KR       0.130500
     57 H29          2.1750     6.1880     6.6430 ha         1 3KR       0.130500
     58 H30          1.6850     6.1290     4.2290 ha         1 3KR       0.122000
@<TRIPOS>BOND
     1     1     2 1   
     2     1     8 1   
     3     1    12 2   
     4     1    13 2   
     5     2     3 ar  
     6     2     7 ar  
     7     3     4 ar  
     8     3    36 1   
     9     4     5 ar  
    10     4    37 1   
    11     5     6 ar  
    12     5    24 1   
    13     6     7 ar  
    14     6    38 1   
    15     7    39 1   
    16     8     9 1   
    17     8    15 1   
    18     8    19 1   
    19     9    10 1   
    20     9    14 2   
    21    10    11 2   
    22    15    16 1   
    23    15    40 1   
    24    15    41 1   
    25    16    17 1   
    26    16    42 1   
    27    16    43 1   
    28    17    18 1   
    29    17    20 1   
    30    18    19 1   
    31    18    44 1   
    32    18    45 1   
    33    19    46 1   
    34    19    47 1   
    35    20    21 1   
    36    20    48 1   
    37    20    49 1   
    38    21    22 1   
    39    21    50 1   
    40    21    51 1   
    41    22    23 1   
    42    23    52 1   
    43    23    53 1   
    44    23    54 1   
    45    24    25 1   
    46    25    26 ar  
    47    25    30 ar  
    48    26    27 ar  
    49    26    55 1   
    50    27    28 ar  
    51    27    56 1   
    52    28    29 ar  
    53    28    31 1   
    54    29    30 ar  
    55    29    57 1   
    56    30    58 1   
    57    31    32 1   
    58    32    33 1   
    59    32    34 1   
    60    32    35 1   
@<TRIPOS>SUBSTRUCTURE
     1 3KR         1 TEMP              0 ****  ****    0 ROOT
