@<TRIPOS>MOLECULE
molecule
   56    55     1     0     0
SMALL
bcc


@<TRIPOS>ATOM
      1 C15          0.0000     0.0000     0.0000 c          1 3KS       0.656100
      2 O8           1.2130     0.0000     0.0000 o          1 3KS      -0.636100
      3 C16         -0.7530     0.0000     1.3050 c3         1 3KS      -0.171100
      4 N3          -0.6740     0.0050    -1.1670 ns         1 3KS      -0.555900
      5 C1           0.0590     0.0060    -2.4360 c3         1 3KS       0.031700
      6 C2          -0.8030     0.6130    -3.5130 c          1 3KS       0.653100
      7 O7          -1.9180     1.0060    -3.2480 o          1 3KS      -0.628100
      8 C            0.4170    -1.4310    -2.8180 c3         1 3KS      -0.104100
      9 N           -0.3320     0.7170    -4.7720 ns         1 3KS      -0.532900
     10 C3          -1.1700     1.3080    -5.8190 c3         1 3KS      -0.002300
     11 C4          -1.0240     2.8070    -5.7940 c          1 3KS       0.889600
     12 O1          -1.7030     3.5620    -6.6720 o          1 3KS      -0.841800
     13 C5          -0.7290     0.7750    -7.1850 c3         1 3KS      -0.058400
     14 C6          -0.9930    -0.7300    -7.2550 c3         1 3KS      -0.164400
     15 C7          -0.5590    -1.2540    -8.5990 c          1 3KS       0.656100
     16 O6          -0.0850    -0.4980    -9.4210 o          1 3KS      -0.605100
     17 O           -0.2960     3.3300    -4.9850 o          1 3KS      -0.841800
     18 C9          -1.3900    -2.8820   -11.1940 c          1 3KS       0.886600
     19 C8          -0.2760    -3.0720   -10.1970 c3         1 3KS       0.004700
     20 C10          0.0550    -4.5620   -10.0800 c3         1 3KS      -0.070400
     21 C11          1.2670    -4.7450    -9.1650 c3         1 3KS      -0.106400
     22 C12          1.5980    -6.2340    -9.0490 c3         1 3KS      -0.092400
     23 C13          2.8100    -6.4170    -8.1330 c3         1 3KS      -0.017500
     24 C14          3.2130    -7.8690    -8.1160 c          1 3KS       0.874600
     25 O3          -1.2270    -3.2780   -12.4650 o          1 3KS      -0.837300
     26 O2          -2.4290    -2.3720   -10.8480 o          1 3KS      -0.837300
     27 O5           3.9400    -8.3760    -9.1230 o          1 3KS      -0.796800
     28 O4           2.8800    -8.5780    -7.1950 o          1 3KS      -0.796800
     29 N1          -0.6980    -2.5630    -8.8900 ns         1 3KS      -0.570900
     30 N2           2.4640    -5.9890    -6.7700 nz         1 3KS      -0.791600
     31 H161        -1.3010     0.9290     1.4060 hc         1 3KS       0.053367
     32 H162        -0.0530    -0.0980     2.1260 hc         1 3KS       0.053367
     33 H163        -1.4470    -0.8320     1.3220 hc         1 3KS       0.053367
     34 H31         -1.6740     0.0210    -1.1680 hn         1 3KS       0.334500
     35 H11          0.9670     0.5880    -2.3280 h1         1 3KS       0.095700
     36 HC1         -0.3510    -1.8340    -3.4670 hc         1 3KS       0.036033
     37 HC2          1.3690    -1.4410    -3.3360 hc         1 3KS       0.036033
     38 HC3          0.4870    -2.0370    -1.9220 hc         1 3KS       0.036033
     39 HN1          0.6010     0.4230    -4.9840 hn         1 3KS       0.297500
     40 H32         -2.2060     1.0430    -5.6460 h1         1 3KS       0.072700
     41 H51         -1.2880     1.2760    -7.9660 hc         1 3KS       0.075200
     42 H52          0.3290     0.9630    -7.3210 hc         1 3KS       0.075200
     43 H61         -0.4340    -1.2320    -6.4740 hc         1 3KS       0.039700
     44 H62         -2.0510    -0.9180    -7.1180 hc         1 3KS       0.039700
     45 H81          0.6020    -2.5320   -10.5280 h1         1 3KS       0.073700
     46 H101         0.2820    -4.9590   -11.0620 hc         1 3KS       0.058700
     47 H102        -0.7940    -5.0900    -9.6650 hc         1 3KS       0.058700
     48 H111         1.0410    -4.3470    -8.1830 hc         1 3KS       0.027200
     49 H112         2.1170    -4.2170    -9.5810 hc         1 3KS       0.027200
     50 H121         0.7490    -6.7620    -8.6330 hc         1 3KS       0.080700
     51 H122         1.8250    -6.6310   -10.0310 hc         1 3KS       0.080700
     52 H131         3.6350    -5.8180    -8.5010 hx         1 3KS       0.103700
     53 H12         -1.1240    -3.1800    -8.2270 hn         1 3KS       0.284500
     54 H21          2.6150    -5.0030    -6.6820 hn         1 3KS       0.437800
     55 H22          3.0390    -6.4750    -6.1110 hn         1 3KS       0.437800
     56 H23          1.5020    -6.1960    -6.5900 hn         1 3KS       0.437800
@<TRIPOS>BOND
     1     7     6 2
     2    30    23 1
     3     2     1 2
     4    23    22 1
     5    23    24 1
     6    22    21 1
     7     6     9 1
     8     6     5 1
     9    25    18 1
    10     8     5 1
    11    20    21 1
    12    20    19 1
    13     1     3 1
    14     1     4 1
    15     9    10 1
    16    29    19 1
    17    29    15 1
    18     5     4 1
    19    18    19 1
    20    18    26 1
    21    24    27 1
    22    24    28 1
    23    14    15 1
    24    14    13 1
    25    15    16 2
    26    12    11 1
    27    10    13 1
    28    10    11 1
    29    11    17 1
    30     3    33 1
    31     3    32 1
    32     3    31 1
    33     4    34 1
    34     5    35 1
    35     8    36 1
    36     8    37 1
    37     8    38 1
    38     9    39 1
    39    10    40 1
    40    13    41 1
    41    13    42 1
    42    14    44 1
    43    14    43 1
    44    29    53 1
    45    19    45 1
    46    20    46 1
    47    20    47 1
    48    21    48 1
    49    21    49 1
    50    22    50 1
    51    22    51 1
    52    23    52 1
    53    30    55 1
    54    30    54 1
    55    56    30 1
@<TRIPOS>SUBSTRUCTURE
     1 3KS         1 TEMP              0 ****  ****    0 ROOT
