@<TRIPOS>MOLECULE
3KS
   56    55     1     0     0
SMALL
bcc


@<TRIPOS>ATOM
      1 C15          0.0000     0.0000     0.0000 c          1 3KS       0.563100
      2 O8           1.2130     0.0000     0.0000 o          1 3KS      -0.681100
      3 C16         -0.7530     0.0000     1.3050 c3         1 3KS      -0.069100
      4 N3          -0.6740     0.0050    -1.1670 ns         1 3KS      -0.150900
      5 C1           0.0590     0.0060    -2.4360 c3         1 3KS      -0.068300
      6 C2          -0.8030     0.6130    -3.5130 c          1 3KS       0.556100
      7 O7          -1.9180     1.0060    -3.2480 o          1 3KS      -0.674100
      8 C            0.4170    -1.4310    -2.8180 c3         1 3KS      -0.009100
      9 N           -0.3320     0.7170    -4.7720 ns         1 3KS      -0.107900
     10 C3          -1.1700     1.3080    -5.8190 c3         1 3KS      -0.111300
     11 C4          -1.0240     2.8070    -5.7940 c          1 3KS       0.981600
     12 O1          -1.7030     3.5620    -6.6720 o          1 3KS      -0.891800
     13 C5          -0.7290     0.7750    -7.1850 c3         1 3KS      -0.009400
     14 C6          -0.9930    -0.7300    -7.2550 c3         1 3KS      -0.110400
     15 C7          -0.5590    -1.2540    -8.5990 c          1 3KS       0.569100
     16 O6          -0.0850    -0.4980    -9.4210 o          1 3KS      -0.639100
     17 O           -0.2960     3.3300    -4.9850 o          1 3KS      -0.891800
     18 C9          -1.3900    -2.8820   -11.1940 c          1 3KS       0.975600
     19 C8          -0.2760    -3.0720   -10.1970 c3         1 3KS      -0.097300
     20 C10          0.0550    -4.5620   -10.0800 c3         1 3KS      -0.015400
     21 C11          1.2670    -4.7450    -9.1650 c3         1 3KS      -0.058400
     22 C12          1.5980    -6.2340    -9.0490 c3         1 3KS      -0.023400
     23 C13          2.8100    -6.4170    -8.1330 c3         1 3KS      -0.200500
     24 C14          3.2130    -7.8690    -8.1160 c          1 3KS       0.965600
     25 O3          -1.2270    -3.2780   -12.4650 o          1 3KS      -0.886300
     26 O2          -2.4290    -2.3720   -10.8480 o          1 3KS      -0.886300
     27 O5           3.9400    -8.3760    -9.1230 o          1 3KS      -0.838300
     28 O4           2.8800    -8.5780    -7.1950 o          1 3KS      -0.838300
     29 N1          -0.6980    -2.5630    -8.8900 ns         1 3KS      -0.174900
     30 N2           2.4640    -5.9890    -6.7700 nz         1 3KS       0.077400
     31 H161        -1.3010     0.9290     1.4060 hc         1 3KS       0.015700
     32 H162        -0.0530    -0.0980     2.1260 hc         1 3KS       0.015700
     33 H163        -1.4470    -0.8320     1.3220 hc         1 3KS       0.015700
     34 H31         -1.6740     0.0210    -1.1680 hn         1 3KS       0.194500
     35 H11          0.9670     0.5880    -2.3280 h1         1 3KS       0.070700
     36 HC1         -0.3510    -1.8340    -3.4670 hc         1 3KS       0.004033
     37 HC2          1.3690    -1.4410    -3.3360 hc         1 3KS       0.004033
     38 HC3          0.4870    -2.0370    -1.9220 hc         1 3KS       0.004033
     39 HN1          0.6010     0.4230    -4.9840 hn         1 3KS       0.153500
     40 H32         -2.2060     1.0430    -5.6460 h1         1 3KS       0.055700
     41 H51         -1.2880     1.2760    -7.9660 hc         1 3KS       0.047700
     42 H52          0.3290     0.9630    -7.3210 hc         1 3KS       0.047700
     43 H61         -0.4340    -1.2320    -6.4740 hc         1 3KS       0.010200
     44 H62         -2.0510    -0.9180    -7.1180 hc         1 3KS       0.010200
     45 H81          0.6020    -2.5320   -10.5280 h1         1 3KS       0.056700
     46 H101         0.2820    -4.9590   -11.0620 hc         1 3KS       0.033200
     47 H102        -0.7940    -5.0900    -9.6650 hc         1 3KS       0.033200
     48 H111         1.0410    -4.3470    -8.1830 hc         1 3KS       0.002200
     49 H112         2.1170    -4.2170    -9.5810 hc         1 3KS       0.002200
     50 H121         0.7490    -6.7620    -8.6330 hc         1 3KS       0.051700
     51 H122         1.8250    -6.6310   -10.0310 hc         1 3KS       0.051700
     52 H131         3.6350    -5.8180    -8.5010 hx         1 3KS       0.086700
     53 H12         -1.1240    -3.1800    -8.2270 hn         1 3KS       0.144500
     54 H21          2.6150    -5.0030    -6.6820 hn         1 3KS       0.210800
     55 H22          3.0390    -6.4750    -6.1110 hn         1 3KS       0.210800
     56 H23          1.5020    -6.1960    -6.5900 hn         1 3KS       0.210800
@<TRIPOS>BOND
     1     1     2 2   
     2     1     3 1   
     3     1     4 1   
     4     3    31 1   
     5     3    32 1   
     6     3    33 1   
     7     4     5 1   
     8     4    34 1   
     9     5     6 1   
    10     5     8 1   
    11     5    35 1   
    12     6     7 2   
    13     6     9 1   
    14     8    36 1   
    15     8    37 1   
    16     8    38 1   
    17     9    10 1   
    18     9    39 1   
    19    10    11 1   
    20    10    13 1   
    21    10    40 1   
    22    11    12 1   
    23    11    17 1   
    24    13    14 1   
    25    13    41 1   
    26    13    42 1   
    27    14    15 1   
    28    14    43 1   
    29    14    44 1   
    30    15    16 2   
    31    15    29 1   
    32    18    19 1   
    33    18    25 1   
    34    18    26 1   
    35    19    20 1   
    36    19    29 1   
    37    19    45 1   
    38    20    21 1   
    39    20    46 1   
    40    20    47 1   
    41    21    22 1   
    42    21    48 1   
    43    21    49 1   
    44    22    23 1   
    45    22    50 1   
    46    22    51 1   
    47    23    24 1   
    48    23    30 1   
    49    23    52 1   
    50    24    27 1   
    51    24    28 1   
    52    29    53 1   
    53    30    54 1   
    54    30    55 1   
    55    30    56 1   
@<TRIPOS>SUBSTRUCTURE
     1 3KS         1 TEMP              0 ****  ****    0 ROOT
