@<TRIPOS>MOLECULE
molecule
   71    74     1     0     0
SMALL
bcc


@<TRIPOS>ATOM
      1 C12          0.0000     0.0000     0.0000 c3         1 3KT       0.165500
      2 C13          2.0390     0.0000     1.4430 c3         1 3KT      -0.077700
      3 C3           3.6830    -1.5870    -0.4840 c          1 3KT       0.724500
      4 C1           2.7430    -3.1970     0.7660 c2         1 3KT       0.697800
      5 C4           4.0800    -1.3580     0.9590 c3         1 3KT       0.140200
      6 C7           3.5690     0.0010     1.4430 c3         1 3KT      -0.074400
      7 N2           2.9030    -2.6840    -0.4980 n          1 3KT      -0.392300
      8 C9           5.5990    -1.4440     1.1150 c3         1 3KT      -0.079400
      9 C11          2.3000    -3.2570    -1.7050 c3         1 3KT       0.113300
     10 N6           3.4240    -2.4490     1.6960 nu         1 3KT      -0.938200
     11 O8           4.0030    -0.9130    -1.4400 o          1 3KT      -0.592500
     12 N10         -0.4900    -0.0000    -1.3850 n7         1 3KT      -0.810200
     13 C14          1.5290     0.0000     0.0000 c3         1 3KT      -0.080400
     14 C15          6.0920    -2.7910     0.5820 c3         1 3KT      -0.082400
     15 C16         -1.8370    -0.5800    -1.4670 c3         1 3KT       0.159500
     16 C17          7.6110    -2.8770     0.7390 c3         1 3KT      -0.068700
     17 C18         -0.0010     1.2500     2.1630 c3         1 3KT      -0.075400
     18 C19         -0.5110     1.2490     0.7210 c3         1 3KT      -0.115400
     19 C20          1.5300     1.2500     2.1630 c3         1 3KT      -0.075400
     20 C21         -1.7440    -2.1100    -1.6460 c3         1 3KT      -0.081400
     21 C22         -2.5700    -0.0370    -2.7060 c3         1 3KT      -0.081400
     22 C23          8.2760    -1.8220    -0.1470 c3         1 3KT      -0.075900
     23 C24          8.0890    -4.2690     0.3220 c3         1 3KT      -0.075900
     24 C25          9.6080    -4.3560     0.4800 c3         1 3KT      -0.079400
     25 C26         -2.9080    -2.4510    -2.6100 c3         1 3KT      -0.082900
     26 C27         -2.8980    -1.2550    -3.5940 c3         1 3KT      -0.082900
     27 C28          9.7950    -1.9090     0.0100 c3         1 3KT      -0.079400
     28 C29         10.2740    -3.3010    -0.4070 c3         1 3KT      -0.079400
     29 H1          -0.3590    -0.8830     0.5150 h1         1 3KT       0.062700
     30 H2           1.6730    -0.8830     1.9530 hc         1 3KT       0.058700
     31 H3           3.9300     0.1840     2.4480 hc         1 3KT       0.058700
     32 H4           3.9310     0.7790     0.7820 hc         1 3KT       0.058700
     33 H5           6.0650    -0.6420     0.5560 hc         1 3KT       0.058700
     34 H6           5.8600    -1.3540     2.1630 hc         1 3KT       0.058700
     35 H7           1.3470    -3.7060    -1.4540 h1         1 3KT       0.058033
     36 H8           2.1490    -2.4740    -2.4390 h1         1 3KT       0.058033
     37 H9           2.9590    -4.0130    -2.1130 h1         1 3KT       0.058033
     38 H10          1.9640    -4.5700     1.9940 hn         1 3KT       0.408400
     39 H12         -0.5080     0.9380    -1.7330 hn         1 3KT       0.354800
     40 H14          1.8890    -0.8860    -0.5090 hc         1 3KT       0.059200
     41 H15          1.8890     0.8860    -0.5090 hc         1 3KT       0.059200
     42 H16          5.8320    -2.8810    -0.4660 hc         1 3KT       0.050700
     43 H17          5.6250    -3.5930     1.1400 hc         1 3KT       0.050700
     44 H18         -2.4020    -0.3470    -0.5730 h1         1 3KT       0.027700
     45 H19          7.8820    -2.7000     1.7730 hc         1 3KT       0.048700
     46 H20         -0.3610     0.3640     2.6730 hc         1 3KT       0.041200
     47 H21         -0.3610     2.1370     2.6710 hc         1 3KT       0.041200
     48 H22         -1.5940     1.2450     0.7220 hc         1 3KT       0.042700
     49 H23         -0.1480     2.1320     0.2100 hc         1 3KT       0.042700
     50 H24          1.8890     1.2470     3.1850 hc         1 3KT       0.041700
     51 H25          1.8900     2.1330     1.6500 hc         1 3KT       0.041700
     52 H26         -1.8830    -2.6100    -0.6950 hc         1 3KT       0.048200
     53 H27         -0.7940    -2.3810    -2.0900 hc         1 3KT       0.048200
     54 H28         -3.4850     0.4590    -2.4050 hc         1 3KT       0.048200
     55 H29         -1.9280     0.6510    -3.2430 hc         1 3KT       0.048200
     56 H30          8.0110    -2.0020    -1.1820 hc         1 3KT       0.043700
     57 H31          7.9390    -0.8370     0.1510 hc         1 3KT       0.043700
     58 H32          7.6190    -5.0140     0.9530 hc         1 3KT       0.043700
     59 H33          7.8230    -4.4460    -0.7130 hc         1 3KT       0.043700
     60 H34          9.9450    -5.3410     0.1810 hc         1 3KT       0.039950
     61 H35          9.8730    -4.1760     1.5140 hc         1 3KT       0.039950
     62 H36         -2.7100    -3.3780    -3.1340 hc         1 3KT       0.044200
     63 H37         -3.8710    -1.1360    -4.0530 hc         1 3KT       0.044200
     64 H38         10.2650    -1.1640    -0.6210 hc         1 3KT       0.039950
     65 H39         10.0610    -1.7320     1.0450 hc         1 3KT       0.039950
     66 H40         11.3490    -3.3610    -0.2910 hc         1 3KT       0.040700
     67 H41         10.0060    -3.4790    -1.4410 hc         1 3KT       0.040700
     68 H11          3.4660    -2.6150     2.6820 hn         1 3KT       0.473800
     69 H13         -3.8480    -2.4970    -2.0740 hc         1 3KT       0.044200
     70 H42         -2.1300    -1.3910    -4.3460 hc         1 3KT       0.044200
     71 N5           2.0370    -4.2540     1.0470 n2         1 3KT      -0.927100
@<TRIPOS>BOND
     1    17    19 1
     2    17    18 1
     3    19     2 1
     4    18     1 1
     5     2     6 1
     6     2    13 1
     7     1    13 1
     8     1    12 1
     9    20    15 1
    10    20    25 1
    11     6     5 1
    12    15    12 1
    13    15    21 1
    14    25    26 1
    15    21    26 1
    16     5     8 1
    17     5    10 1
    18     5     3 1
    19     8    14 1
    20    10     4 1
    21    22    27 1
    22    22    16 1
    23    27    28 1
    24    11     3 2
    25     3     7 1
    26    16    14 1
    27    16    23 1
    28     4     7 1
    29     4    71 2
    30     7     9 1
    31    28    24 1
    32    23    24 1
    33     1    29 1
    34     2    30 1
    35     6    31 1
    36     6    32 1
    37     8    33 1
    38     8    34 1
    39     9    35 1
    40     9    36 1
    41     9    37 1
    42    71    38 1
    43    12    39 1
    44    13    40 1
    45    13    41 1
    46    14    42 1
    47    14    43 1
    48    15    44 1
    49    16    45 1
    50    17    46 1
    51    17    47 1
    52    18    48 1
    53    18    49 1
    54    19    50 1
    55    19    51 1
    56    20    52 1
    57    20    53 1
    58    21    54 1
    59    21    55 1
    60    22    56 1
    61    22    57 1
    62    23    58 1
    63    23    59 1
    64    24    60 1
    65    24    61 1
    66    25    62 1
    67    26    63 1
    68    27    64 1
    69    27    65 1
    70    28    66 1
    71    28    67 1
    72    10    68 1
    73    25    69 1
    74    26    70 1
@<TRIPOS>SUBSTRUCTURE
     1 3KT         1 TEMP              0 ****  ****    0 ROOT
