@<TRIPOS>MOLECULE
3KT
   71    74     1     0     0
SMALL
bcc


@<TRIPOS>ATOM
      1 C12          0.0000     0.0000     0.0000 c3         1 3KT       0.119500
      2 C13          2.0390     0.0000     1.4430 c3         1 3KT      -0.059700
      3 C3           3.6830    -1.5870    -0.4840 c          1 3KT       0.652500
      4 C1           2.7430    -3.1970     0.7660 c2         1 3KT       0.399800
      5 C4           4.0800    -1.3580     0.9590 c3         1 3KT       0.019200
      6 C7           3.5690     0.0010     1.4430 c3         1 3KT      -0.023400
      7 N2           2.9030    -2.6840    -0.4980 n          1 3KT      -0.083300
      8 C9           5.5990    -1.4440     1.1150 c3         1 3KT      -0.030400
      9 C11          2.3000    -3.2570    -1.7050 c3         1 3KT       0.082300
     10 N6           3.4240    -2.4490     1.6960 nu         1 3KT      -0.470200
     11 O8           4.0030    -0.9130    -1.4400 o          1 3KT      -0.628500
     12 N10         -0.4900    -0.0000    -1.3850 n7         1 3KT      -0.580200
     13 C14          1.5290     0.0000     0.0000 c3         1 3KT      -0.072400
     14 C15          6.0920    -2.7910     0.5820 c3         1 3KT      -0.042400
     15 C16         -1.8370    -0.5800    -1.4670 c3         1 3KT       0.112500
     16 C17          7.6110    -2.8770     0.7390 c3         1 3KT      -0.046700
     17 C18         -0.0010     1.2500     2.1630 c3         1 3KT      -0.023400
     18 C19         -0.5110     1.2490     0.7210 c3         1 3KT      -0.024400
     19 C20          1.5300     1.2500     2.1630 c3         1 3KT      -0.019400
     20 C21         -1.7440    -2.1100    -1.6460 c3         1 3KT      -0.042900
     21 C22         -2.5700    -0.0370    -2.7060 c3         1 3KT      -0.042900
     22 C23          8.2760    -1.8220    -0.1470 c3         1 3KT      -0.026900
     23 C24          8.0890    -4.2690     0.3220 c3         1 3KT      -0.026900
     24 C25          9.6080    -4.3560     0.4800 c3         1 3KT      -0.022900
     25 C26         -2.9080    -2.4510    -2.6100 c3         1 3KT      -0.023400
     26 C27         -2.8980    -1.2550    -3.5940 c3         1 3KT      -0.023400
     27 C28          9.7950    -1.9090     0.0100 c3         1 3KT      -0.022900
     28 C29         10.2740    -3.3010    -0.4070 c3         1 3KT      -0.025400
     29 H1          -0.3590    -0.8830     0.5150 h1         1 3KT       0.013700
     30 H2           1.6730    -0.8830     1.9530 hc         1 3KT       0.039700
     31 H3           3.9310     0.7790     0.7820 hc         1 3KT       0.035200
     32 H4           3.9300     0.1840     2.4480 hc         1 3KT       0.035200
     33 H5           5.8600    -1.3540     2.1630 hc         1 3KT       0.036200
     34 H6           6.0650    -0.6420     0.5560 hc         1 3KT       0.036200
     35 H7           2.2730    -2.5060    -2.4860 h1         1 3KT       0.022033
     36 H8           2.8910    -4.1020    -2.0370 h1         1 3KT       0.022033
     37 H9           1.2920    -3.5850    -1.4840 h1         1 3KT       0.022033
     38 H10          1.5660    -4.7500     0.3170 hn         1 3KT       0.334400
     39 H12          0.1360    -0.5280    -1.9600 hn         1 3KT       0.261800
     40 H14          1.8890     0.8860    -0.5090 hc         1 3KT       0.037200
     41 H15          1.8890    -0.8860    -0.5090 hc         1 3KT       0.037200
     42 H16          5.8320    -2.8810    -0.4660 hc         1 3KT       0.024200
     43 H17          5.6250    -3.5930     1.1400 hc         1 3KT       0.024200
     44 H18         -2.4020    -0.3470    -0.5730 h1         1 3KT       0.038700
     45 H19          7.8820    -2.7000     1.7730 hc         1 3KT       0.029700
     46 H20         -0.3610     0.3640     2.6730 hc         1 3KT       0.013700
     47 H21         -0.3610     2.1370     2.6710 hc         1 3KT       0.013700
     48 H22         -0.1480     2.1320     0.2100 hc         1 3KT       0.023200
     49 H23         -1.5940     1.2450     0.7220 hc         1 3KT       0.023200
     50 H24          1.8900     2.1330     1.6500 hc         1 3KT       0.016700
     51 H25          1.8890     1.2470     3.1850 hc         1 3KT       0.016700
     52 H26         -1.8830    -2.6100    -0.6950 hc         1 3KT       0.019950
     53 H27         -0.7940    -2.3810    -2.0900 hc         1 3KT       0.019950
     54 H28         -1.9280     0.6510    -3.2430 hc         1 3KT       0.019950
     55 H29         -3.4850     0.4590    -2.4050 hc         1 3KT       0.019950
     56 H30          7.9390    -0.8370     0.1510 hc         1 3KT       0.017700
     57 H31          8.0110    -2.0020    -1.1820 hc         1 3KT       0.017700
     58 H32          7.8230    -4.4460    -0.7130 hc         1 3KT       0.017700
     59 H33          7.6190    -5.0140     0.9530 hc         1 3KT       0.017700
     60 H34          9.8730    -4.1760     1.5140 hc         1 3KT       0.012950
     61 H35          9.9450    -5.3410     0.1810 hc         1 3KT       0.012950
     62 H36         -2.7100    -3.3780    -3.1340 hc         1 3KT       0.015200
     63 H37         -3.8710    -1.1360    -4.0530 hc         1 3KT       0.015200
     64 H38         10.2650    -1.1640    -0.6210 hc         1 3KT       0.012950
     65 H39         10.0610    -1.7320     1.0450 hc         1 3KT       0.012950
     66 H40         10.0060    -3.4790    -1.4410 hc         1 3KT       0.013200
     67 H41         11.3490    -3.3610    -0.2910 hc         1 3KT       0.013200
     68 H11          3.4660    -2.6150     2.6820 hn         1 3KT       0.334800
     69 H13         -3.8480    -2.4970    -2.0740 hc         1 3KT       0.015200
     70 H42         -2.1300    -1.3910    -4.3460 hc         1 3KT       0.015200
     71 N5           2.0370    -4.2540     1.0470 n2         1 3KT      -0.807100
@<TRIPOS>BOND
     1     1    12 1   
     2     1    13 1   
     3     1    18 1   
     4     1    29 1   
     5     2     6 1   
     6     2    13 1   
     7     2    19 1   
     8     2    30 1   
     9     3     5 1   
    10     3     7 1   
    11     3    11 2   
    12     4     7 1   
    13     4    10 1   
    14     4    71 2   
    15     5     6 1   
    16     5     8 1   
    17     5    10 1   
    18     6    31 1   
    19     6    32 1   
    20     7     9 1   
    21     8    14 1   
    22     8    33 1   
    23     8    34 1   
    24     9    35 1   
    25     9    36 1   
    26     9    37 1   
    27    10    68 1   
    28    12    15 1   
    29    12    39 1   
    30    13    40 1   
    31    13    41 1   
    32    14    16 1   
    33    14    42 1   
    34    14    43 1   
    35    15    20 1   
    36    15    21 1   
    37    15    44 1   
    38    16    22 1   
    39    16    23 1   
    40    16    45 1   
    41    17    18 1   
    42    17    19 1   
    43    17    46 1   
    44    17    47 1   
    45    18    48 1   
    46    18    49 1   
    47    19    50 1   
    48    19    51 1   
    49    20    25 1   
    50    20    52 1   
    51    20    53 1   
    52    21    26 1   
    53    21    54 1   
    54    21    55 1   
    55    22    27 1   
    56    22    56 1   
    57    22    57 1   
    58    23    24 1   
    59    23    58 1   
    60    23    59 1   
    61    24    28 1   
    62    24    60 1   
    63    24    61 1   
    64    25    26 1   
    65    25    62 1   
    66    25    69 1   
    67    26    63 1   
    68    26    70 1   
    69    27    28 1   
    70    27    64 1   
    71    27    65 1   
    72    28    66 1   
    73    28    67 1   
    74    38    71 1   
@<TRIPOS>SUBSTRUCTURE
     1 3KT         1 TEMP              0 ****  ****    0 ROOT
