@<TRIPOS>MOLECULE
3KU
   69    72     1     0     0
SMALL
bcc


@<TRIPOS>ATOM
      1 C1           0.0000     0.0000     0.0000 c          1 3KU       0.632500
      2 C2           1.5140     0.0000     0.0000 c3         1 3KU       0.026200
      3 N3           1.8800     0.0000     1.4250 nu         1 3KU      -0.545200
      4 C4           0.7030     0.0000     2.1330 c2         1 3KU       0.404800
      5 N5          -0.3830    -0.0000     1.2910 n          1 3KU      -0.007300
      6 O6          -0.7250     0.0040    -0.9710 o          1 3KU      -0.626500
      7 C7           2.0480    -1.2570    -0.6890 c3         1 3KU      -0.031400
      8 C8           1.3740     2.4930    -0.0900 c3         1 3KU      -0.049700
      9 C9           1.4650    -2.4980    -0.0110 c3         1 3KU      -0.040400
     10 C10          2.0000    -3.7550    -0.7010 c3         1 3KU      -0.046700
     11 C11          1.7180     3.7220    -0.9340 c3         1 3KU      -0.032400
     12 C12          1.0430     4.9570    -0.3340 c3         1 3KU       0.019700
     13 C13          1.5420     5.1670     1.0970 c3         1 3KU      -0.045400
     14 C14          1.1980     3.9380     1.9410 c3         1 3KU      -0.011400
     15 C15          1.8720     2.7020     1.3410 c3         1 3KU      -0.081400
     16 C16          1.5160    -4.9940     0.0540 c3         1 3KU      -0.026900
     17 C17          2.0520    -6.2520    -0.6350 c3         1 3KU      -0.022900
     18 C18          1.5400    -6.3000    -2.0770 c3         1 3KU      -0.025400
     19 C19          2.0230    -5.0590    -2.8310 c3         1 3KU      -0.022900
     20 C20          1.4880    -3.8030    -2.1420 c3         1 3KU      -0.026900
     21 N21          0.6260    -0.0010     3.4320 n2         1 3KU      -0.797100
     22 N22          1.3720     6.1340    -1.1430 ns         1 3KU      -0.189900
     23 C23          0.5470     7.2000    -1.1490 c          1 3KU       0.594700
     24 C24          2.0480     1.2580    -0.6900 c3         1 3KU      -0.019400
     25 C25         -1.7770    -0.0010     1.7400 c3         1 3KU       0.085300
     26 O26         -0.4700     7.1860    -0.4830 o          1 3KU      -0.642100
     27 C27          0.8800     8.3900    -1.9660 ca         1 3KU      -0.123600
     28 C28          0.0380     9.5060    -1.9870 ca         1 3KU      -0.182800
     29 C29          0.3880    10.5940    -2.7630 ca         1 3KU       0.396200
     30 C30          2.0470     8.4300    -2.7350 ca         1 3KU      -0.182800
     31 C31          2.3220     9.5610    -3.4780 ca         1 3KU       0.396200
     32 N32          1.4950    10.5890    -3.4770 nb         1 3KU      -0.566000
     33 H1           3.1290    -1.2780    -0.6140 hc         1 3KU       0.035200
     34 H2           1.7590    -1.2460    -1.7330 hc         1 3KU       0.035200
     35 H3           0.2990     2.3540    -0.0790 hc         1 3KU       0.044700
     36 H4           1.7550    -2.5080     1.0330 hc         1 3KU       0.023700
     37 H5           0.3850    -2.4770    -0.0860 hc         1 3KU       0.023700
     38 H6           3.0830    -3.7370    -0.7050 hc         1 3KU       0.028700
     39 H7           1.3620     3.5740    -1.9460 hc         1 3KU       0.020200
     40 H8           2.7910     3.8650    -0.9400 hc         1 3KU       0.020200
     41 H9          -0.0300     4.8100    -0.3220 h1         1 3KU       0.063700
     42 H10          2.6160     5.3080     1.0870 hc         1 3KU       0.024700
     43 H11          1.0620     6.0410     1.5210 hc         1 3KU       0.024700
     44 H12          0.1240     3.7950     1.9470 hc         1 3KU       0.019700
     45 H13          1.5540     4.0860     2.9540 hc         1 3KU       0.019700
     46 H14          1.6260     1.8320     1.9390 hc         1 3KU       0.031700
     47 H15          2.9460     2.8470     1.3310 hc         1 3KU       0.031700
     48 H16          0.4330    -5.0170     0.0520 hc         1 3KU       0.018450
     49 H17          1.8800    -4.9600     1.0740 hc         1 3KU       0.018450
     50 H18          1.7070    -7.1290    -0.1010 hc         1 3KU       0.012700
     51 H19          3.1350    -6.2270    -0.6380 hc         1 3KU       0.012700
     52 H20          1.9220    -7.1890    -2.5640 hc         1 3KU       0.013700
     53 H21          0.4570    -6.3210    -2.0740 hc         1 3KU       0.013700
     54 H22          3.1060    -5.0370    -2.8300 hc         1 3KU       0.012700
     55 H23          1.6580    -5.0930    -3.8500 hc         1 3KU       0.012700
     56 H24          1.8330    -2.9250    -2.6750 hc         1 3KU       0.018450
     57 H25          0.4050    -3.8270    -2.1380 hc         1 3KU       0.018450
     58 H26          1.4610    -0.0010     3.9830 hn         1 3KU       0.333400
     59 H28          2.2050     6.1430    -1.6980 hn         1 3KU       0.177500
     60 H29          1.8320     1.2070    -1.7500 hc         1 3KU       0.031700
     61 H30          3.1190     1.3230    -0.5430 hc         1 3KU       0.031700
     62 H31         -2.4140     0.3580     0.9410 h1         1 3KU       0.024033
     63 H32         -2.0690    -1.0080     2.0100 h1         1 3KU       0.024033
     64 H33         -1.8790     0.6480     2.6020 h1         1 3KU       0.024033
     65 H34         -0.8740     9.5180    -1.4020 ha         1 3KU       0.123500
     66 H35         -0.2610    11.4610    -2.7890 h4         1 3KU      -0.017400
     67 H36          2.7310     7.5900    -2.7390 ha         1 3KU       0.123500
     68 H37          3.2230     9.6010    -4.0780 h4         1 3KU      -0.017400
     69 H38          2.8060    -0.0050     1.8050 hn         1 3KU       0.335800
@<TRIPOS>BOND
     1     1     2 1   
     2     1     5 1   
     3     1     6 2   
     4     2     3 1   
     5     2     7 1   
     6     2    24 1   
     7     3     4 1   
     8     3    69 1   
     9     4     5 1   
    10     4    21 2   
    11     5    25 1   
    12     7     9 1   
    13     7    33 1   
    14     7    34 1   
    15     8    11 1   
    16     8    15 1   
    17     8    24 1   
    18     8    35 1   
    19     9    10 1   
    20     9    36 1   
    21     9    37 1   
    22    10    16 1   
    23    10    20 1   
    24    10    38 1   
    25    11    12 1   
    26    11    39 1   
    27    11    40 1   
    28    12    13 1   
    29    12    22 1   
    30    12    41 1   
    31    13    14 1   
    32    13    42 1   
    33    13    43 1   
    34    14    15 1   
    35    14    44 1   
    36    14    45 1   
    37    15    46 1   
    38    15    47 1   
    39    16    17 1   
    40    16    48 1   
    41    16    49 1   
    42    17    18 1   
    43    17    50 1   
    44    17    51 1   
    45    18    19 1   
    46    18    52 1   
    47    18    53 1   
    48    19    20 1   
    49    19    54 1   
    50    19    55 1   
    51    20    56 1   
    52    20    57 1   
    53    21    58 1   
    54    22    23 1   
    55    22    59 1   
    56    23    26 2   
    57    23    27 1   
    58    24    60 1   
    59    24    61 1   
    60    25    62 1   
    61    25    63 1   
    62    25    64 1   
    63    27    28 ar  
    64    27    30 ar  
    65    28    29 ar  
    66    28    65 1   
    67    29    32 ar  
    68    29    66 1   
    69    30    31 ar  
    70    30    67 1   
    71    31    32 ar  
    72    31    68 1   
@<TRIPOS>SUBSTRUCTURE
     1 3KU         1 TEMP              0 ****  ****    0 ROOT
