@<TRIPOS>MOLECULE
molecule
   49    49     1     0     0
SMALL
bcc


@<TRIPOS>ATOM
      1 C4           0.0000     0.0000     0.0000 c3         1 3KV      -0.031200
      2 C5           1.5010     0.0000     0.0000 c2         1 3KV      -0.134400
      3 C6           2.2350     0.0000     1.1000 ce         1 3KV      -0.067200
      4 C7           3.6460     0.0090     0.9620 cf         1 3KV      -0.190000
      5 C8           4.2570     1.0190     0.2910 ce         1 3KV      -0.082000
      6 C10          6.2540     1.9770    -0.6340 cf         1 3KV      -0.062000
      7 C13          9.6270     2.8800    -1.8060 ce         1 3KV      -0.069200
      8 C15         11.5870     3.7640    -2.8770 c          1 3KV       0.935800
      9 C20         10.4300     1.6980    -1.3290 c3         1 3KV      -0.075900
     10 O1          12.2340     4.8150    -3.4260 o          1 3KV      -0.803300
     11 O2          12.1660     2.7040    -2.7260 o          1 3KV      -0.803300
     12 C14         10.2410     3.8950    -2.4810 cf         1 3KV      -0.415200
     13 C12          8.2470     2.9360    -1.5570 ce         1 3KV      -0.033000
     14 C11          7.6330     1.9210    -0.8820 cf         1 3KV      -0.236000
     15 C9           5.6400     0.9630     0.0410 ce         1 3KV      -0.170200
     16 C19          6.4440    -0.2200     0.5180 c3         1 3KV      -0.041900
     17 C18          2.2120    -0.0010    -1.3290 c3         1 3KV      -0.051900
     18 C3          -0.5260    -0.4240     1.3730 c3         1 3KV      -0.081400
     19 C2           0.1860     0.4080     2.4460 c3         1 3KV      -0.068400
     20 C1           1.6580    -0.0070     2.4860 c3         1 3KV      -0.016800
     21 C16          1.7710    -1.4150     3.0750 c3         1 3KV      -0.076600
     22 H1          -0.3580     0.9970    -0.2280 hc         1 3KV       0.043200
     23 H2          -0.3580    -0.6950    -0.7500 hc         1 3KV       0.043200
     24 H5           4.2260    -0.8400     1.3050 ha         1 3KV       0.134000
     25 H6           3.6640     1.8170    -0.1380 ha         1 3KV       0.123000
     26 H7           5.6760     2.8270    -0.9770 ha         1 3KV       0.117000
     27 H8           2.4860     1.9370     2.8760 hc         1 3KV       0.034200
     28 H9           1.9400     1.0750     4.3210 hc         1 3KV       0.034200
     29 H10          3.4430     0.5960     3.5210 hc         1 3KV       0.034200
     30 H11         11.4150     2.0300    -1.0220 hc         1 3KV       0.045367
     31 H12          9.9280     1.2350    -0.4880 hc         1 3KV       0.045367
     32 H13         10.5260     0.9780    -2.1320 hc         1 3KV       0.045367
     33 H15         11.0460     4.1290    -1.7950 ha         1 3KV       0.191000
     34 H16          7.6690     3.7860    -1.9010 ha         1 3KV       0.133000
     35 H18          8.2110     1.0710    -0.5380 ha         1 3KV       0.136000
     36 H20          7.1280    -0.5300    -0.2630 hc         1 3KV       0.036033
     37 H21          5.7760    -1.0370     0.7600 hc         1 3KV       0.036033
     38 H22          7.0080     0.0590     1.4000 hc         1 3KV       0.036033
     39 H23          3.0740    -0.6550    -1.2760 hc         1 3KV       0.041700
     40 H24          2.5360     1.0050    -1.5660 hc         1 3KV       0.041700
     41 H25          1.5370    -0.3540    -2.0990 hc         1 3KV       0.041700
     42 H26         -1.5930    -0.2450     1.4240 hc         1 3KV       0.038200
     43 H27         -0.3190    -1.4750     1.5320 hc         1 3KV       0.038200
     44 H28         -0.2700     0.2230     3.4110 hc         1 3KV       0.040200
     45 H29          0.1130     1.4600     2.1980 hc         1 3KV       0.040200
     46 H30          1.0280    -1.5420     3.8520 hc         1 3KV       0.034200
     47 H31          2.7600    -1.5520     3.4960 hc         1 3KV       0.034200
     48 H32          1.6070    -2.1470     2.2940 hc         1 3KV       0.034200
     49 C17          2.4390     0.9720     3.3650 c3         1 3KV      -0.076600
@<TRIPOS>BOND
     1     9     7 1   
     2    11     8 1   
     3     7    13 1   
     4     7    12 2   
     5    13    14 2   
     6     8    12 1   
     7     8    10 1   
     8    14     6 1   
     9    17     2 1   
    10     6    15 2   
    11    15     5 1   
    12    15    16 1   
    13     1     2 1   
    14     1    18 1   
    15     2     3 2   
    16     5     4 2   
    17     4     3 1   
    18     3    20 1   
    19    18    19 1   
    20    21    20 1   
    21    20    19 1   
    22    20    49 1   
    23     1    22 1   
    24     1    23 1   
    25     4    24 1   
    26     5    25 1   
    27     6    26 1   
    28    49    27 1   
    29    49    28 1   
    30    49    29 1   
    31     9    30 1   
    32     9    31 1   
    33     9    32 1   
    34    12    33 1   
    35    13    34 1   
    36    14    35 1   
    37    16    36 1   
    38    16    37 1   
    39    16    38 1   
    40    17    39 1   
    41    17    40 1   
    42    17    41 1   
    43    18    42 1   
    44    18    43 1   
    45    19    44 1   
    46    19    45 1   
    47    21    46 1   
    48    21    47 1   
    49    21    48 1   
@<TRIPOS>SUBSTRUCTURE
     1 3KV         1 TEMP              0 ****  ****    0 ROOT
