@<TRIPOS>MOLECULE
3KV
   49    49     1     0     0
SMALL
bcc


@<TRIPOS>ATOM
      1 C4          0.1940    0.4540    0.4430 c3        1 3KV     -0.114000
      2 C5          1.5910    0.0620    0.1130 c2        1 3KV     -0.134000
      3 C6          2.5860    0.0260    1.0310 c2        1 3KV     -0.126000
      4 C7          3.8960   -0.4730    0.7660 c1        1 3KV     -0.018000
      5 C8          4.8840    0.2250   -0.0260 c3        1 3KV     -0.196000
      6 C10         7.0850    0.0630   -1.0560 c1        1 3KV     -0.245000
      7 C13         9.0550    2.9460   -1.5650 c3        1 3KV     -0.142000
      8 C15        10.1200    5.1840   -2.1190 c2        1 3KV      0.289000
      9 C20         9.3270    3.1050   -0.0820 c3        1 3KV     -0.207000
     10 O1          9.2910    5.9820   -2.6600 o         1 3KV     -0.578500
     11 O2         11.0830    5.5560   -1.3820 o         1 3KV     -0.578500
     12 C14         9.9520    3.7420   -2.4080 c1        1 3KV     -0.083000
     13 C12         9.1100    1.4710   -1.9760 c3        1 3KV     -0.056000
     14 C11         8.0080    0.7060   -1.4700 c1        1 3KV     -0.106000
     15 C9          5.9840   -0.7070   -0.5450 c3        1 3KV      0.040000
     16 C19         5.4190   -1.6430   -1.6000 c3        1 3KV     -0.206000
     17 C18         1.7940   -0.3140   -1.3070 c3        1 3KV     -0.181000
     18 C3         -0.0910    0.4660    1.9290 c3        1 3KV     -0.152000
     19 C2          1.0460    1.1030    2.6930 c3        1 3KV     -0.148000
     20 C1          2.3650    0.3560    2.4930 c3        1 3KV      0.006000
     21 C16         2.3690   -0.9380    3.3010 c3        1 3KV     -0.208500
     22 H1          1.1710    2.1650    2.3530 hc        1 3KV      0.081500
     23 H2          0.0150    1.4800    0.0180 hc        1 3KV      0.081000
     24 H5          4.4500    0.8120   -0.8840 hc        1 3KV      0.127000
     25 H6          5.3480    0.9850    0.6770 hc        1 3KV      0.127000
     26 H7          6.3510   -1.3310    0.3240 hc        1 3KV      0.109000
     27 H8          4.4730    0.6910    2.9450 hc        1 3KV      0.079500
     28 H9          3.5880    2.1630    2.3570 hc        1 3KV      0.079500
     29 H10         3.3150    1.5530    4.0430 hc        1 3KV      0.079500
     30 H11         8.5100    2.6380    0.5180 hc        1 3KV      0.077000
     31 H12        10.2930    2.6160    0.1930 hc        1 3KV      0.077000
     32 H13         9.4030    4.1930    0.1710 hc        1 3KV      0.077000
     33 H15         8.0160    3.3410   -1.7930 hc        1 3KV      0.123000
     34 H16        10.0750    1.0230   -1.6110 hc        1 3KV      0.106000
     35 H18         9.1190    1.4140   -3.1010 hc        1 3KV      0.106000
     36 H20         6.2100   -2.3440   -1.9580 hc        1 3KV      0.076000
     37 H21         5.0350   -1.0670   -2.4750 hc        1 3KV      0.076000
     38 H22         4.5800   -2.2360   -1.1610 hc        1 3KV      0.076000
     39 H23         2.8510   -0.6160   -1.5180 hc        1 3KV      0.079667
     40 H24         1.5330    0.5490   -1.9700 hc        1 3KV      0.079667
     41 H25         1.1290   -1.1730   -1.5760 hc        1 3KV      0.079667
     42 H26        -0.5250   -0.2430   -0.0680 hc        1 3KV      0.081000
     43 H27        -0.2510   -0.5840    2.2910 hc        1 3KV      0.076500
     44 H28        -1.0390    1.0330    2.1230 hc        1 3KV      0.076500
     45 H29         0.8040    1.1230    3.7880 hc        1 3KV      0.081500
     46 H30         2.2750   -0.7070    4.3890 hc        1 3KV      0.079500
     47 H31         1.5180   -1.5920    2.9960 hc        1 3KV      0.079500
     48 H32         3.3230   -1.4920    3.1240 hc        1 3KV      0.079500
     49 C17         3.5040    1.2450    2.9870 c3        1 3KV     -0.208500
@<TRIPOS>BOND
     1    1    2 1   
     2    1   18 1   
     3    1   23 1   
     4    1   42 1   
     5    2    3 1   
     6    2   17 1   
     7    3    4 1   
     8    3   20 1   
     9    4    5 1   
    10    5   15 1   
    11    5   24 1   
    12    5   25 1   
    13    6   14 1   
    14    6   15 1   
    15    7    9 1   
    16    7   12 1   
    17    7   13 1   
    18    7   33 1   
    19    8   10 1   
    20    8   11 1   
    21    8   12 1   
    22    9   30 1   
    23    9   31 1   
    24    9   32 1   
    25   13   14 1   
    26   13   34 1   
    27   13   35 1   
    28   15   16 1   
    29   15   26 1   
    30   16   36 1   
    31   16   37 1   
    32   16   38 1   
    33   17   39 1   
    34   17   40 1   
    35   17   41 1   
    36   18   19 1   
    37   18   43 1   
    38   18   44 1   
    39   19   20 1   
    40   19   22 1   
    41   19   45 1   
    42   20   21 1   
    43   20   49 1   
    44   21   46 1   
    45   21   47 1   
    46   21   48 1   
    47   27   49 1   
    48   28   49 1   
    49   29   49 1   
@<TRIPOS>SUBSTRUCTURE
     1 3KV         1 TEMP              0 ****  ****    0 ROOT
