@<TRIPOS>MOLECULE
3KW
   73    77     1     0     0
SMALL
bcc


@<TRIPOS>ATOM
      1 C1           0.0000     0.0000     0.0000 c          1 3KW       0.631500
      2 C2           1.5140     0.0000     0.0000 c3         1 3KW       0.026200
      3 N3           1.8800     0.0000     1.4260 nu         1 3KW      -0.543200
      4 C4           0.7030     0.0010     2.1320 c2         1 3KW       0.403800
      5 N5          -0.3840     0.0010     1.2910 n          1 3KW      -0.007300
      6 O6          -0.7250     0.0040    -0.9720 o          1 3KW      -0.626500
      7 C7           2.0470    -1.2580    -0.6880 c3         1 3KW      -0.032400
      8 C8           1.3750     2.4930    -0.0900 c3         1 3KW      -0.051700
      9 C9           1.4630    -2.4980    -0.0100 c3         1 3KW      -0.040400
     10 C10          1.9970    -3.7560    -0.6990 c3         1 3KW      -0.046700
     11 C11          1.7200     3.7210    -0.9350 c3         1 3KW      -0.028400
     12 C12          1.0460     4.9580    -0.3360 c3         1 3KW       0.130500
     13 C13          1.5440     5.1670     1.0960 c3         1 3KW      -0.053400
     14 C14          1.2000     3.9380     1.9400 c3         1 3KW      -0.012400
     15 C15          1.8740     2.7020     1.3410 c3         1 3KW      -0.080400
     16 C16          1.5130    -4.9960     0.0560 c3         1 3KW      -0.026900
     17 C17          2.0470    -6.2530    -0.6320 c3         1 3KW      -0.022400
     18 C18          1.5360    -6.3010    -2.0740 c3         1 3KW      -0.025400
     19 C19          2.0190    -5.0620    -2.8280 c3         1 3KW      -0.022400
     20 C20          1.4860    -3.8040    -2.1400 c3         1 3KW      -0.026900
     21 N21          0.6250     0.0010     3.4320 n2         1 3KW      -0.800100
     22 N22          1.3760     6.1340    -1.1440 nu         1 3KW      -0.507900
     23 C23          2.0490     1.2560    -0.6890 c3         1 3KW      -0.019400
     24 C24         -1.7770     0.0020     1.7400 c3         1 3KW       0.085300
     25 C25          0.5280     7.2310    -1.1510 ca         1 3KW       0.531200
     26 C26         -0.6410     7.1970    -0.3780 ca         1 3KW      -0.293300
     27 C27         -1.4830     8.2680    -0.3750 ca         1 3KW      -0.007000
     28 N28          0.8420     8.2830    -1.8790 nb         1 3KW      -0.668000
     29 C29          0.0540     9.3630    -1.9150 ca         1 3KW       0.434600
     30 C30         -1.1440     9.3880    -1.1600 ca         1 3KW      -0.205300
     31 C31         -1.9660    10.5250    -1.2020 ca         1 3KW      -0.060000
     32 C32         -1.6030    11.5900    -1.9680 ca         1 3KW      -0.129000
     33 C33         -0.4250    11.5680    -2.7110 ca         1 3KW      -0.078000
     34 C34          0.3950    10.4810    -2.6940 ca         1 3KW      -0.167300
     35 H1           1.7590    -1.2470    -1.7330 hc         1 3KW       0.035200
     36 H2           3.1280    -1.2800    -0.6130 hc         1 3KW       0.035200
     37 H3           0.3010     2.3550    -0.0790 hc         1 3KW       0.041700
     38 H4           1.7520    -2.5080     1.0340 hc         1 3KW       0.023700
     39 H5           0.3820    -2.4760    -0.0850 hc         1 3KW       0.023700
     40 H6           3.0800    -3.7380    -0.7030 hc         1 3KW       0.028700
     41 H7           2.7940     3.8640    -0.9410 hc         1 3KW       0.024200
     42 H8           1.3650     3.5720    -1.9480 hc         1 3KW       0.024200
     43 H9          -0.0270     4.8110    -0.3250 h1         1 3KW       0.044700
     44 H10          2.6190     5.3070     1.0860 hc         1 3KW       0.025200
     45 H11          1.0650     6.0410     1.5200 hc         1 3KW       0.025200
     46 H12          0.1260     3.7950     1.9460 hc         1 3KW       0.016700
     47 H13          1.5550     4.0870     2.9530 hc         1 3KW       0.016700
     48 H14          1.6270     1.8330     1.9390 hc         1 3KW       0.032200
     49 H15          2.9470     2.8470     1.3310 hc         1 3KW       0.032200
     50 H16          0.4300    -5.0170     0.0560 hc         1 3KW       0.018200
     51 H17          1.8780    -4.9610     1.0750 hc         1 3KW       0.018200
     52 H18          1.7000    -7.1300    -0.0990 hc         1 3KW       0.012700
     53 H19          3.1300    -6.2300    -0.6350 hc         1 3KW       0.012700
     54 H20          0.4530    -6.3200    -2.0720 hc         1 3KW       0.014200
     55 H21          1.9170    -7.1900    -2.5620 hc         1 3KW       0.014200
     56 H22          1.6540    -5.0960    -3.8480 hc         1 3KW       0.012700
     57 H23          3.1020    -5.0400    -2.8280 hc         1 3KW       0.012700
     58 H24          1.8320    -2.9270    -2.6740 hc         1 3KW       0.018200
     59 H25          0.4030    -3.8280    -2.1370 hc         1 3KW       0.018200
     60 H26          1.4600     0.0010     3.9840 hn         1 3KW       0.334400
     61 H28          2.2110     6.1430    -1.6970 hn         1 3KW       0.300800
     62 H29          3.1200     1.3210    -0.5410 hc         1 3KW       0.033700
     63 H30          1.8330     1.2060    -1.7490 hc         1 3KW       0.033700
     64 H31         -2.4150     0.3590     0.9400 h1         1 3KW       0.023367
     65 H32         -1.8790     0.6530     2.6000 h1         1 3KW       0.023367
     66 H33         -2.0700    -1.0050     2.0130 h1         1 3KW       0.023367
     67 H34         -0.9150     6.2920     0.1510 ha         1 3KW       0.125000
     68 H35         -2.3910     8.2590     0.2170 ha         1 3KW       0.106000
     69 H36         -2.8850    10.5540    -0.6280 ha         1 3KW       0.102000
     70 H37         -2.2380    12.4670    -1.9990 ha         1 3KW       0.101000
     71 H38         -0.1580    12.4280    -3.3130 ha         1 3KW       0.099000
     72 H39          1.3070    10.4790    -3.2780 ha         1 3KW       0.116000
     73 H40          2.8050    -0.0060     1.8070 hn         1 3KW       0.336800
@<TRIPOS>BOND
     1     1     2 1   
     2     1     5 1   
     3     1     6 2   
     4     2     3 1   
     5     2     7 1   
     6     2    23 1   
     7     3     4 1   
     8     3    73 1   
     9     4     5 1   
    10     4    21 2   
    11     5    24 1   
    12     7     9 1   
    13     7    35 1   
    14     7    36 1   
    15     8    11 1   
    16     8    15 1   
    17     8    23 1   
    18     8    37 1   
    19     9    10 1   
    20     9    38 1   
    21     9    39 1   
    22    10    16 1   
    23    10    20 1   
    24    10    40 1   
    25    11    12 1   
    26    11    41 1   
    27    11    42 1   
    28    12    13 1   
    29    12    22 1   
    30    12    43 1   
    31    13    14 1   
    32    13    44 1   
    33    13    45 1   
    34    14    15 1   
    35    14    46 1   
    36    14    47 1   
    37    15    48 1   
    38    15    49 1   
    39    16    17 1   
    40    16    50 1   
    41    16    51 1   
    42    17    18 1   
    43    17    52 1   
    44    17    53 1   
    45    18    19 1   
    46    18    54 1   
    47    18    55 1   
    48    19    20 1   
    49    19    56 1   
    50    19    57 1   
    51    20    58 1   
    52    20    59 1   
    53    21    60 1   
    54    22    25 1   
    55    22    61 1   
    56    23    62 1   
    57    23    63 1   
    58    24    64 1   
    59    24    65 1   
    60    24    66 1   
    61    25    26 ar  
    62    25    28 ar  
    63    26    27 ar  
    64    26    67 1   
    65    27    30 ar  
    66    27    68 1   
    67    28    29 ar  
    68    29    30 ar  
    69    29    34 ar  
    70    30    31 ar  
    71    31    32 ar  
    72    31    69 1   
    73    32    33 ar  
    74    32    70 1   
    75    33    34 ar  
    76    33    71 1   
    77    34    72 1   
@<TRIPOS>SUBSTRUCTURE
     1 3KW         1 TEMP              0 ****  ****    0 ROOT
