@<TRIPOS>MOLECULE
molecule
   73    77     1     0     0
SMALL
bcc


@<TRIPOS>ATOM
      1 C1           0.0000     0.0000     0.0000 c          1 3KW       0.711500
      2 C2           1.5140     0.0000     0.0000 c3         1 3KW       0.150200
      3 N3           1.8800     0.0000     1.4260 nu         1 3KW      -0.883200
      4 C4           0.7030     0.0010     2.1320 c2         1 3KW       0.696800
      5 N5          -0.3840     0.0010     1.2910 n          1 3KW      -0.446300
      6 O6          -0.7250     0.0040    -0.9720 o          1 3KW      -0.592500
      7 C7           2.0470    -1.2580    -0.6880 c3         1 3KW      -0.080400
      8 C8           1.3750     2.4930    -0.0900 c3         1 3KW      -0.069700
      9 C9           1.4630    -2.4980    -0.0100 c3         1 3KW      -0.084400
     10 C10          1.9970    -3.7560    -0.6990 c3         1 3KW      -0.068700
     11 C11          1.7200     3.7210    -0.9350 c3         1 3KW      -0.085400
     12 C12          1.0460     4.9580    -0.3360 c3         1 3KW       0.244500
     13 C13          1.5440     5.1670     1.0960 c3         1 3KW      -0.103400
     14 C14          1.2000     3.9380     1.9400 c3         1 3KW      -0.077400
     15 C15          1.8740     2.7020     1.3410 c3         1 3KW      -0.101400
     16 C16          1.5130    -4.9960     0.0560 c3         1 3KW      -0.075900
     17 C17          2.0470    -6.2530    -0.6320 c3         1 3KW      -0.079400
     18 C18          1.5360    -6.3010    -2.0740 c3         1 3KW      -0.079400
     19 C19          2.0190    -5.0620    -2.8280 c3         1 3KW      -0.079400
     20 C20          1.4860    -3.8040    -2.1400 c3         1 3KW      -0.075900
     21 N21          0.6250     0.0010     3.4320 n2         1 3KW      -0.921100
     22 N22          1.3760     6.1340    -1.1440 nu         1 3KW      -0.913900
     23 C23          2.0490     1.2560    -0.6890 c3         1 3KW      -0.073400
     24 C24         -1.7770     0.0020     1.7400 c3         1 3KW       0.100300
     25 C25          0.5280     7.2310    -1.1510 ca         1 3KW       0.714200
     26 C26         -0.6410     7.1970    -0.3780 ca         1 3KW      -0.303300
     27 C27         -1.4830     8.2680    -0.3750 ca         1 3KW      -0.045000
     28 N28          0.8420     8.2830    -1.8790 nb         1 3KW      -0.775000
     29 C29          0.0540     9.3630    -1.9150 ca         1 3KW       0.475600
     30 C30         -1.1440     9.3880    -1.1600 ca         1 3KW      -0.206300
     31 C31         -1.9660    10.5250    -1.2020 ca         1 3KW      -0.091000
     32 C32         -1.6030    11.5900    -1.9680 ca         1 3KW      -0.153000
     33 C33         -0.4250    11.5680    -2.7110 ca         1 3KW      -0.106000
     34 C34          0.3950    10.4810    -2.6940 ca         1 3KW      -0.187300
     35 H1           3.1280    -1.2800    -0.6130 hc         1 3KW       0.061200
     36 H2           1.7590    -1.2470    -1.7330 hc         1 3KW       0.061200
     37 H3           0.3010     2.3550    -0.0790 hc         1 3KW       0.058700
     38 H4           0.3820    -2.4760    -0.0850 hc         1 3KW       0.051200
     39 H5           1.7520    -2.5080     1.0340 hc         1 3KW       0.051200
     40 H6           3.0800    -3.7380    -0.7030 hc         1 3KW       0.049700
     41 H7           1.3650     3.5720    -1.9480 hc         1 3KW       0.050700
     42 H8           2.7940     3.8640    -0.9410 hc         1 3KW       0.050700
     43 H9          -0.0270     4.8110    -0.3250 h1         1 3KW       0.060700
     44 H10          1.0650     6.0410     1.5200 hc         1 3KW       0.052200
     45 H11          2.6190     5.3070     1.0860 hc         1 3KW       0.052200
     46 H12          1.5550     4.0870     2.9530 hc         1 3KW       0.044700
     47 H13          0.1260     3.7950     1.9460 hc         1 3KW       0.044700
     48 H14          2.9470     2.8470     1.3310 hc         1 3KW       0.058700
     49 H15          1.6280     1.8330     1.9390 hc         1 3KW       0.058700
     50 H16          1.8780    -4.9610     1.0750 hc         1 3KW       0.042950
     51 H17          0.4300    -5.0170     0.0560 hc         1 3KW       0.042950
     52 H18          3.1300    -6.2300    -0.6350 hc         1 3KW       0.040700
     53 H19          1.7000    -7.1300    -0.0990 hc         1 3KW       0.040700
     54 H20          0.4530    -6.3200    -2.0720 hc         1 3KW       0.041200
     55 H21          1.9170    -7.1900    -2.5620 hc         1 3KW       0.041200
     56 H22          3.1020    -5.0400    -2.8280 hc         1 3KW       0.040700
     57 H23          1.6540    -5.0960    -3.8480 hc         1 3KW       0.040700
     58 H24          1.8320    -2.9270    -2.6740 hc         1 3KW       0.042950
     59 H25          0.4030    -3.8280    -2.1370 hc         1 3KW       0.042950
     60 H26         -0.2700     0.0020     3.8800 hn         1 3KW       0.410400
     61 H28          2.2070     6.1400    -1.7020 hn         1 3KW       0.449800
     62 H29          1.8330     1.2060    -1.7490 hc         1 3KW       0.061700
     63 H30          3.1200     1.3210    -0.5410 hc         1 3KW       0.061700
     64 H31         -2.4330     0.0890     0.8820 h1         1 3KW       0.054700
     65 H32         -1.9420     0.8410     2.4060 h1         1 3KW       0.054700
     66 H33         -1.9890    -0.9220     2.2640 h1         1 3KW       0.054700
     67 H34         -0.9160     6.2910     0.1490 ha         1 3KW       0.138000
     68 H35         -2.3910     8.2590     0.2170 ha         1 3KW       0.137000
     69 H36         -2.8850    10.5540    -0.6280 ha         1 3KW       0.128000
     70 H37         -2.2380    12.4670    -1.9990 ha         1 3KW       0.127000
     71 H38         -0.1580    12.4280    -3.3130 ha         1 3KW       0.129000
     72 H39          1.3070    10.4790    -3.2780 ha         1 3KW       0.145000
     73 H40          2.8050    -0.0070     1.8070 hn         1 3KW       0.492800
@<TRIPOS>BOND
     1    34    33 ar
     2    34    29 ar
     3    33    32 ar
     4    28    29 ar
     5    28    25 ar
     6    29    30 ar
     7    32    31 ar
     8    22    25 1
     9    22    12 1
    10    25    26 ar
    11    30    31 ar
    12    30    27 ar
    13    13    12 1
    14    13    14 1
    15    12    11 1
    16    26    27 ar
    17    11     8 1
    18    15    14 1
    19    15     8 1
    20     8    23 1
    21    23     2 1
    22     7     2 1
    23     7     9 1
    24     2     3 1
    25     2     1 1
    26    20    19 1
    27    20    10 1
    28    19    18 1
    29     3     4 1
    30     6     1 2
    31     1     5 1
    32    10     9 1
    33    10    16 1
    34     4     5 1
    35     4    21 2
    36     5    24 1
    37    18    17 1
    38    16    17 1
    39     7    35 1
    40     7    36 1
    41     8    37 1
    42     9    38 1
    43     9    39 1
    44    10    40 1
    45    11    41 1
    46    11    42 1
    47    12    43 1
    48    13    44 1
    49    13    45 1
    50    14    46 1
    51    14    47 1
    52    15    48 1
    53    15    49 1
    54    16    50 1
    55    16    51 1
    56    17    52 1
    57    17    53 1
    58    18    54 1
    59    18    55 1
    60    19    56 1
    61    19    57 1
    62    20    58 1
    63    20    59 1
    64    21    60 1
    65    22    61 1
    66    23    62 1
    67    23    63 1
    68    24    64 1
    69    24    65 1
    70    24    66 1
    71    26    67 1
    72    27    68 1
    73    31    69 1
    74    32    70 1
    75    33    71 1
    76    34    72 1
    77     3    73 1
@<TRIPOS>SUBSTRUCTURE
     1 3KW         1 TEMP              0 ****  ****    0 ROOT
