@<TRIPOS>MOLECULE
molecule
   42    44     1     0     0
SMALL
bcc


@<TRIPOS>ATOM
      1 O            0.0000     0.0000     0.0000 o          1 3KX      -0.644500
      2 C            1.2210     0.0000     0.0000 c          1 3KX       0.697700
      3 C11          1.9260     0.0000     1.2220 cc         1 3KX      -0.197400
      4 C12          1.1990     0.0020     2.5120 ca         1 3KX      -0.013800
      5 C17          0.4120     1.0960     2.8700 ca         1 3KX      -0.099000
      6 C16         -0.2640     1.0920     4.0730 ca         1 3KX      -0.134000
      7 C15         -0.1600     0.0060     4.9230 ca         1 3KX      -0.127000
      8 C14          0.6190    -1.0820     4.5740 ca         1 3KX      -0.134000
      9 C13          1.2950    -1.0920     3.3710 ca         1 3KX      -0.099000
     10 C10          3.3210    -0.0010     1.1930 cd         1 3KX       0.200100
     11 O1           4.0330     0.0000     2.3450 oh         1 3KX      -0.495100
     12 C9           3.9750    -0.0030    -0.0510 cd         1 3KX      -0.293000
     13 C1           3.2520    -0.0050    -1.1940 cc         1 3KX       0.078400
     14 N            1.8930    -0.0080    -1.1650 ns         1 3KX      -0.411100
     15 C2           3.9650    -0.0070    -2.5210 c3         1 3KX      -0.051200
     16 C3           4.0950    -1.4440    -3.0280 c3         1 3KX      -0.069700
     17 C8           2.7040    -2.0110    -3.3150 c3         1 3KX      -0.080900
     18 C7           2.8340    -3.4490    -3.8220 c3         1 3KX      -0.077400
     19 C6           3.6650    -3.4640    -5.1060 c3         1 3KX      -0.081400
     20 C5           5.0570    -2.8970    -4.8190 c3         1 3KX      -0.077400
     21 C4           4.9270    -1.4590    -4.3110 c3         1 3KX      -0.080900
     22 H1           0.3310     1.9470     2.2050 ha         1 3KX       0.133000
     23 H2          -0.8760     1.9410     4.3520 ha         1 3KX       0.127000
     24 H3          -0.6910     0.0080     5.8680 ha         1 3KX       0.124000
     25 H4           0.6940    -1.9310     5.2430 ha         1 3KX       0.127000
     26 H5           1.9050    -1.9440     3.0980 ha         1 3KX       0.133000
     27 H6           4.6530     0.7100     2.3310 ho         1 3KX       0.427000
     28 H7           5.0570    -0.0030    -0.0950 ha         1 3KX       0.151000
     29 H8           1.3840    -0.0090    -2.0270 hn         1 3KX       0.339500
     30 H9           4.9520     0.4250    -2.4020 hc         1 3KX       0.062700
     31 H10          3.4000     0.5780    -3.2360 hc         1 3KX       0.062700
     32 H11          4.5830    -2.0540    -2.2770 hc         1 3KX       0.063700
     33 H12          2.2170    -1.4060    -4.0710 hc         1 3KX       0.043200
     34 H13          2.1170    -2.0020    -2.4050 hc         1 3KX       0.043200
     35 H14          1.8480    -3.8480    -4.0270 hc         1 3KX       0.044950
     36 H15          3.3250    -4.0530    -3.0680 hc         1 3KX       0.044950
     37 H16          3.7580    -4.4820    -5.4630 hc         1 3KX       0.043200
     38 H17          3.1770    -2.8560    -5.8580 hc         1 3KX       0.043200
     39 H18          5.5440    -3.5020    -4.0640 hc         1 3KX       0.044950
     40 H19          5.6440    -2.9050    -5.7300 hc         1 3KX       0.044950
     41 H20          5.9130    -1.0600    -4.1060 hc         1 3KX       0.043200
     42 H21          4.4370    -0.8540    -5.0650 hc         1 3KX       0.043200
@<TRIPOS>BOND
     1    11    10 1   
     2     7     8 ar  
     3     7     6 ar  
     4     8     9 ar  
     5     6     5 ar  
     6     9     4 ar  
     7     5     4 ar  
     8     4     3 1   
     9    10     3 2   
    10    10    12 1   
    11     3     2 1   
    12    12    13 2   
    13     2     1 2   
    14     2    14 1   
    15    13    14 1   
    16    13    15 1   
    17    15    16 1   
    18    17    16 1   
    19    17    18 1   
    20    16    21 1   
    21    18    19 1   
    22    21    20 1   
    23    19    20 1   
    24     5    22 1   
    25     6    23 1   
    26     7    24 1   
    27     8    25 1   
    28     9    26 1   
    29    11    27 1   
    30    12    28 1   
    31    14    29 1   
    32    15    30 1   
    33    15    31 1   
    34    16    32 1   
    35    17    33 1   
    36    17    34 1   
    37    18    35 1   
    38    18    36 1   
    39    19    37 1   
    40    19    38 1   
    41    20    39 1   
    42    20    40 1   
    43    21    41 1   
    44    21    42 1   
@<TRIPOS>SUBSTRUCTURE
     1 3KX         1 TEMP              0 ****  ****    0 ROOT
