@<TRIPOS>MOLECULE
3KX
   42    44     1     0     0
SMALL
bcc


@<TRIPOS>ATOM
      1 O            0.0000     0.0000     0.0000 o          1 3KX      -0.694500
      2 C            1.2210     0.0000     0.0000 c          1 3KX       0.596700
      3 C11          1.9260     0.0000     1.2220 cc         1 3KX      -0.206400
      4 C12          1.1990     0.0020     2.5120 ca         1 3KX       0.001200
      5 C17          0.4120     1.0960     2.8700 ca         1 3KX      -0.078500
      6 C16         -0.2640     1.0920     4.0730 ca         1 3KX      -0.106000
      7 C15         -0.1600     0.0060     4.9230 ca         1 3KX      -0.104000
      8 C14          0.6190    -1.0820     4.5740 ca         1 3KX      -0.106000
      9 C13          1.2950    -1.0920     3.3710 ca         1 3KX      -0.078500
     10 C10          3.3210    -0.0010     1.1930 cd         1 3KX       0.213100
     11 O1           4.0330     0.0000     2.3450 oh         1 3KX      -0.474100
     12 C9           3.9750    -0.0030    -0.0510 cd         1 3KX      -0.268000
     13 C1           3.2520    -0.0050    -1.1940 cc         1 3KX      -0.098600
     14 N            1.8930    -0.0080    -1.1650 ns         1 3KX       0.075900
     15 C2           3.9650    -0.0070    -2.5210 c3         1 3KX       0.021800
     16 C3           4.0950    -1.4440    -3.0280 c3         1 3KX      -0.051700
     17 C8           2.7040    -2.0110    -3.3150 c3         1 3KX      -0.030400
     18 C7           2.8340    -3.4490    -3.8220 c3         1 3KX      -0.020900
     19 C6           3.6650    -3.4640    -5.1060 c3         1 3KX      -0.025400
     20 C5           5.0570    -2.8970    -4.8190 c3         1 3KX      -0.020900
     21 C4           4.9270    -1.4590    -4.3110 c3         1 3KX      -0.030400
     22 H1           0.3310     1.9470     2.2050 ha         1 3KX       0.105500
     23 H2          -0.8760     1.9410     4.3520 ha         1 3KX       0.099000
     24 H3          -0.6910     0.0080     5.8680 ha         1 3KX       0.098000
     25 H4           0.6940    -1.9310     5.2430 ha         1 3KX       0.099000
     26 H5           1.9050    -1.9440     3.0980 ha         1 3KX       0.105500
     27 H6           4.6530     0.7100     2.3310 ho         1 3KX       0.407000
     28 H7           5.0570    -0.0030    -0.0950 ha         1 3KX       0.131000
     29 H8           1.3840    -0.0090    -2.0270 hn         1 3KX       0.178500
     30 H9           4.9520     0.4250    -2.4020 hc         1 3KX       0.029700
     31 H10          3.4000     0.5780    -3.2360 hc         1 3KX       0.029700
     32 H11          4.5830    -2.0540    -2.2770 hc         1 3KX       0.040700
     33 H12          2.2170    -1.4060    -4.0710 hc         1 3KX       0.016450
     34 H13          2.1170    -2.0020    -2.4050 hc         1 3KX       0.016450
     35 H14          1.8480    -3.8480    -4.0270 hc         1 3KX       0.015950
     36 H15          3.3250    -4.0530    -3.0680 hc         1 3KX       0.015950
     37 H16          3.7580    -4.4820    -5.4630 hc         1 3KX       0.015200
     38 H17          3.1770    -2.8560    -5.8580 hc         1 3KX       0.015200
     39 H18          5.5440    -3.5020    -4.0640 hc         1 3KX       0.015950
     40 H19          5.6440    -2.9050    -5.7300 hc         1 3KX       0.015950
     41 H20          5.9130    -1.0600    -4.1060 hc         1 3KX       0.016450
     42 H21          4.4370    -0.8540    -5.0650 hc         1 3KX       0.016450
@<TRIPOS>BOND
     1     1     2 2   
     2     2     3 1   
     3     2    14 1   
     4     3     4 1   
     5     3    10 2   
     6     4     5 ar  
     7     4     9 ar  
     8     5     6 ar  
     9     5    22 1   
    10     6     7 ar  
    11     6    23 1   
    12     7     8 ar  
    13     7    24 1   
    14     8     9 ar  
    15     8    25 1   
    16     9    26 1   
    17    10    11 1   
    18    10    12 1   
    19    11    27 1   
    20    12    13 2   
    21    12    28 1   
    22    13    14 1   
    23    13    15 1   
    24    14    29 1   
    25    15    16 1   
    26    15    30 1   
    27    15    31 1   
    28    16    17 1   
    29    16    21 1   
    30    16    32 1   
    31    17    18 1   
    32    17    33 1   
    33    17    34 1   
    34    18    19 1   
    35    18    35 1   
    36    18    36 1   
    37    19    20 1   
    38    19    37 1   
    39    19    38 1   
    40    20    21 1   
    41    20    39 1   
    42    20    40 1   
    43    21    41 1   
    44    21    42 1   
@<TRIPOS>SUBSTRUCTURE
     1 3KX         1 TEMP              0 ****  ****    0 ROOT
