@<TRIPOS>MOLECULE
3KY
   48    50     1     0     0
SMALL
bcc


@<TRIPOS>ATOM
      1 O1           0.0000     0.0000     0.0000 o          1 3KY      -0.693500
      2 C19          1.2200     0.0000     0.0000 c          1 3KY       0.597700
      3 C12          1.9260     0.0000     1.2230 cc         1 3KY      -0.207400
      4 C13          1.1980     0.0050     2.5130 ca         1 3KY       0.001200
      5 C18          0.4150     1.1010     2.8700 ca         1 3KY      -0.078500
      6 C17         -0.2610     1.0990     4.0730 ca         1 3KY      -0.106000
      7 C16         -0.1620     0.0130     4.9240 ca         1 3KY      -0.104000
      8 C15          0.6140    -1.0770     4.5740 ca         1 3KY      -0.106000
      9 C14          1.2900    -1.0890     3.3720 ca         1 3KY      -0.078500
     10 C            3.3200    -0.0050     1.1940 cd         1 3KY       0.213100
     11 O            4.0320    -0.0070     2.3460 oh         1 3KY      -0.473100
     12 N            1.8930    -0.0040    -1.1660 ns         1 3KY       0.073900
     13 C2           3.2520    -0.0040    -1.1920 cc         1 3KY      -0.097600
     14 C1           3.9750    -0.0100    -0.0510 cd         1 3KY      -0.268000
     15 C3           3.9650    -0.0100    -2.5200 c3         1 3KY       0.020800
     16 C4           4.0970    -1.4500    -3.0220 c3         1 3KY      -0.049700
     17 C11          4.9290    -1.4680    -4.3060 c3         1 3KY      -0.038900
     18 C10          5.0600    -2.9070    -4.8080 c3         1 3KY      -0.013900
     19 C7           3.6690    -3.4750    -5.0950 c3         1 3KY      -0.071000
     20 C9           3.7990    -4.9150    -5.5970 c3         1 3KY       0.001900
     21 C8           2.9790    -2.6240    -6.1620 c3         1 3KY       0.001900
     22 C6           2.8350    -3.4570    -3.8100 c3         1 3KY      -0.013900
     23 C5           2.7060    -2.0180    -3.3080 c3         1 3KY      -0.038900
     24 H1           0.3360     1.9520     2.2040 ha         1 3KY       0.105500
     25 H2          -0.8710     1.9500     4.3520 ha         1 3KY       0.099000
     26 H3          -0.6930     0.0180     5.8680 ha         1 3KY       0.098000
     27 H4           0.6870    -1.9260     5.2440 ha         1 3KY       0.099000
     28 H5           1.8980    -1.9440     3.0990 ha         1 3KY       0.105500
     29 H6           4.6620     0.6940     2.3270 ho         1 3KY       0.407000
     30 H7           1.3850    -0.0010    -2.0280 hn         1 3KY       0.178500
     31 H8           5.0570    -0.0120    -0.0940 ha         1 3KY       0.131000
     32 H9           3.3990     0.5720    -3.2370 hc         1 3KY       0.029200
     33 H10          4.9520     0.4220    -2.4020 hc         1 3KY       0.029200
     34 H11          4.5850    -2.0570    -2.2690 hc         1 3KY       0.040700
     35 H12          5.9140    -1.0680    -4.1010 hc         1 3KY       0.020950
     36 H13          4.4380    -0.8660    -5.0610 hc         1 3KY       0.020950
     37 H14          5.6470    -2.9180    -5.7180 hc         1 3KY       0.019950
     38 H15          5.5460    -3.5100    -4.0510 hc         1 3KY       0.019950
     39 H16          4.2780    -5.5210    -4.8370 hc         1 3KY       0.007367
     40 H17          2.8150    -5.3140    -5.8100 hc         1 3KY       0.007367
     41 H18          4.3970    -4.9300    -6.5000 hc         1 3KY       0.007367
     42 H19          2.9540    -1.5910    -5.8390 hc         1 3KY       0.007367
     43 H20          1.9660    -2.9810    -6.3090 hc         1 3KY       0.007367
     44 H21          3.5270    -2.6990    -7.0930 hc         1 3KY       0.007367
     45 H22          1.8500    -3.8570    -4.0150 hc         1 3KY       0.019950
     46 H23          3.3250    -4.0590    -3.0550 hc         1 3KY       0.019950
     47 H24          2.1180    -2.0060    -2.3980 hc         1 3KY       0.020950
     48 H25          2.2200    -1.4150    -4.0660 hc         1 3KY       0.020950
@<TRIPOS>BOND
     1     1     2 2   
     2     2     3 1   
     3     2    12 1   
     4     3     4 1   
     5     3    10 2   
     6     4     5 ar  
     7     4     9 ar  
     8     5     6 ar  
     9     5    24 1   
    10     6     7 ar  
    11     6    25 1   
    12     7     8 ar  
    13     7    26 1   
    14     8     9 ar  
    15     8    27 1   
    16     9    28 1   
    17    10    11 1   
    18    10    14 1   
    19    11    29 1   
    20    12    13 1   
    21    12    30 1   
    22    13    14 2   
    23    13    15 1   
    24    14    31 1   
    25    15    16 1   
    26    15    32 1   
    27    15    33 1   
    28    16    17 1   
    29    16    23 1   
    30    16    34 1   
    31    17    18 1   
    32    17    35 1   
    33    17    36 1   
    34    18    19 1   
    35    18    37 1   
    36    18    38 1   
    37    19    20 1   
    38    19    21 1   
    39    19    22 1   
    40    20    39 1   
    41    20    40 1   
    42    20    41 1   
    43    21    42 1   
    44    21    43 1   
    45    21    44 1   
    46    22    23 1   
    47    22    45 1   
    48    22    46 1   
    49    23    47 1   
    50    23    48 1   
@<TRIPOS>SUBSTRUCTURE
     1 3KY         1 TEMP              0 ****  ****    0 ROOT
