@<TRIPOS>MOLECULE
molecule
   48    50     1     0     0
SMALL
bcc


@<TRIPOS>ATOM
      1 O1           0.0000     0.0000     0.0000 o          1 3KY      -0.643500
      2 C19          1.2200     0.0000     0.0000 c          1 3KY       0.698700
      3 C12          1.9260     0.0000     1.2230 cc         1 3KY      -0.198400
      4 C13          1.1980     0.0050     2.5130 ca         1 3KY      -0.012800
      5 C18          0.4150     1.1010     2.8700 ca         1 3KY      -0.099000
      6 C17         -0.2610     1.0990     4.0730 ca         1 3KY      -0.134000
      7 C16         -0.1620     0.0130     4.9240 ca         1 3KY      -0.127000
      8 C15          0.6140    -1.0770     4.5740 ca         1 3KY      -0.134000
      9 C14          1.2900    -1.0890     3.3720 ca         1 3KY      -0.099000
     10 C            3.3200    -0.0050     1.1940 cd         1 3KY       0.200100
     11 O            4.0320    -0.0070     2.3460 oh         1 3KY      -0.494100
     12 N            1.8930    -0.0040    -1.1660 ns         1 3KY      -0.412100
     13 C2           3.2520    -0.0040    -1.1920 cc         1 3KY       0.078400
     14 C1           3.9750    -0.0100    -0.0510 cd         1 3KY      -0.294000
     15 C3           3.9650    -0.0100    -2.5200 c3         1 3KY      -0.051200
     16 C4           4.0970    -1.4500    -3.0220 c3         1 3KY      -0.068700
     17 C11          4.9290    -1.4680    -4.3060 c3         1 3KY      -0.082900
     18 C10          5.0600    -2.9070    -4.8080 c3         1 3KY      -0.066400
     19 C7           3.6690    -3.4750    -5.0950 c3         1 3KY      -0.069000
     20 C9           3.7990    -4.9150    -5.5970 c3         1 3KY      -0.083600
     21 C8           2.9790    -2.6240    -6.1620 c3         1 3KY      -0.083600
     22 C6           2.8350    -3.4570    -3.8100 c3         1 3KY      -0.066400
     23 C5           2.7060    -2.0180    -3.3080 c3         1 3KY      -0.082900
     24 H1           0.3360     1.9520     2.2040 ha         1 3KY       0.133000
     25 H2          -0.8710     1.9500     4.3520 ha         1 3KY       0.126500
     26 H3          -0.6930     0.0180     5.8680 ha         1 3KY       0.124000
     27 H4           0.6870    -1.9260     5.2440 ha         1 3KY       0.126500
     28 H5           1.8980    -1.9440     3.0990 ha         1 3KY       0.133000
     29 H6           4.6620     0.6940     2.3270 ho         1 3KY       0.427000
     30 H7           1.3850    -0.0010    -2.0280 hn         1 3KY       0.339500
     31 H8           5.0570    -0.0120    -0.0940 ha         1 3KY       0.151000
     32 H9           3.3990     0.5720    -3.2370 hc         1 3KY       0.062200
     33 H10          4.9520     0.4220    -2.4020 hc         1 3KY       0.062200
     34 H11          4.5850    -2.0570    -2.2690 hc         1 3KY       0.063700
     35 H12          5.9140    -1.0680    -4.1010 hc         1 3KY       0.044950
     36 H13          4.4380    -0.8660    -5.0610 hc         1 3KY       0.044950
     37 H14          5.6470    -2.9180    -5.7180 hc         1 3KY       0.045950
     38 H15          5.5460    -3.5100    -4.0510 hc         1 3KY       0.045950
     39 H16          4.2780    -5.5210    -4.8370 hc         1 3KY       0.035533
     40 H17          2.8150    -5.3140    -5.8100 hc         1 3KY       0.035533
     41 H18          4.3970    -4.9300    -6.5000 hc         1 3KY       0.035533
     42 H19          2.9540    -1.5910    -5.8390 hc         1 3KY       0.035533
     43 H20          1.9660    -2.9810    -6.3090 hc         1 3KY       0.035533
     44 H21          3.5270    -2.6990    -7.0930 hc         1 3KY       0.035533
     45 H22          1.8500    -3.8570    -4.0150 hc         1 3KY       0.045950
     46 H23          3.3250    -4.0590    -3.0550 hc         1 3KY       0.045950
     47 H24          2.1180    -2.0060    -2.3980 hc         1 3KY       0.044950
     48 H25          2.2200    -1.4150    -4.0660 hc         1 3KY       0.044950
@<TRIPOS>BOND
     1    11    10 1
     2     7     8 ar
     3     7     6 ar
     4     8     9 ar
     5     6     5 ar
     6     9     4 ar
     7     5     4 ar
     8     4     3 1
     9    10     3 2
    10    10    14 1
    11     3     2 1
    12    14    13 2
    13    13    12 1
    14    13    15 1
    15     2    12 1
    16     2     1 2
    17    15    16 1
    18    16    17 1
    19    16    23 1
    20    17    18 1
    21    20    19 1
    22    18    19 1
    23    23    22 1
    24    19    22 1
    25    19    21 1
    26     5    24 1
    27     6    25 1
    28     7    26 1
    29     8    27 1
    30     9    28 1
    31    11    29 1
    32    12    30 1
    33    14    31 1
    34    15    32 1
    35    15    33 1
    36    16    34 1
    37    17    35 1
    38    17    36 1
    39    18    37 1
    40    18    38 1
    41    20    39 1
    42    20    40 1
    43    20    41 1
    44    21    42 1
    45    21    43 1
    46    21    44 1
    47    22    45 1
    48    22    46 1
    49    23    47 1
    50    23    48 1
@<TRIPOS>SUBSTRUCTURE
     1 3KY         1 TEMP              0 ****  ****    0 ROOT
