@<TRIPOS>MOLECULE
molecule
   58    62     1     0     0
SMALL
bcc


@<TRIPOS>ATOM
      1 C26          0.0000     0.0000     0.0000 ca         1 3KZ      -0.144000
      2 C27          1.3830     0.0000     0.0000 ca         1 3KZ      -0.102000
      3 C25         -0.6940     0.0010     1.1920 ca         1 3KZ      -0.091000
      4 C28          2.0800     0.0000     1.1940 ca         1 3KZ      -0.169000
      5 C3          -1.5340    -1.0950     4.0320 ca         1 3KZ      -0.104000
      6 C4          -1.3270     1.0830     5.7430 ca         1 3KZ      -0.154000
      7 C24          0.0000    -0.0040     2.4000 cp         1 3KZ      -0.070000
      8 C2          -0.7400    -0.0040     3.6850 cp         1 3KZ      -0.045000
      9 C1          -0.6420     1.0880     4.5450 ca         1 3KZ      -0.044300
     10 C5          -2.1110    -0.0060     6.0920 ca         1 3KZ       0.108600
     11 C6          -2.2290    -1.0970     5.2300 ca         1 3KZ       0.090100
     12 C29          1.3960     0.0010     2.3960 ca         1 3KZ       0.140900
     13 C9          -3.6330    -1.0770     7.6030 c2         1 3KZ       0.542200
     14 C14         -3.8670     1.2510     9.0680 c          1 3KZ       0.669500
     15 C8          -3.4450    -2.3800     6.8700 c3         1 3KZ       0.139100
     16 C22         -0.6140     3.5560     4.2860 c3         1 3KZ      -0.073400
     17 C21          0.2720     4.7600     3.9610 c3         1 3KZ       0.163800
     18 C19          2.2420     3.5970     4.7630 c3         1 3KZ       0.168800
     19 C12          0.2110     2.2720     4.1680 c3         1 3KZ      -0.023400
     20 C13         -2.5860     1.0470     8.2960 c3         1 3KZ       0.172500
     21 C18          1.4130     2.3590     5.1130 c3         1 3KZ      -0.068700
     22 C17         -1.4650     0.6570     9.2610 c3         1 3KZ      -0.110100
     23 C23          0.9210     2.4650     6.5580 c3         1 3KZ      -0.087100
     24 N16         -4.7660     0.2500     9.1660 ns         1 3KZ      -0.323900
     25 N10         -2.7840    -0.0230     7.3170 nh         1 3KZ      -0.670000
     26 N11         -4.5500    -0.9630     8.5050 n2         1 3KZ      -0.515300
     27 N20          1.4080     4.7990     4.8920 n3         1 3KZ      -0.731600
     28 O15         -4.1010     2.3320     9.5650 o          1 3KZ      -0.620500
     29 O7          -3.0230    -2.1510     5.5330 os         1 3KZ      -0.323900
     30 F30          2.0770     0.0010     3.5630 f          1 3KZ      -0.134900
     31 H1          -0.5400     0.0020    -0.9390 ha         1 3KZ       0.136000
     32 H2           1.9230    -0.0010    -0.9390 ha         1 3KZ       0.137000
     33 H3          -1.7770     0.0010     1.1890 ha         1 3KZ       0.144000
     34 H4           3.1640     0.0020     1.1880 ha         1 3KZ       0.146000
     35 H5          -1.6070    -1.9450     3.3630 ha         1 3KZ       0.153000
     36 H6          -1.2520     1.9320     6.4120 ha         1 3KZ       0.156000
     37 H7          -4.3840    -2.9190     6.8590 h1         1 3KZ       0.081700
     38 H8          -2.6950    -2.9700     7.3830 h1         1 3KZ       0.081700
     39 H9          -1.4410     3.5190     3.5880 hc         1 3KZ       0.052200
     40 H10         -0.9920     3.6500     5.2970 hc         1 3KZ       0.052200
     41 H11         -0.3070     5.6700     4.0600 h1         1 3KZ       0.034200
     42 H12          0.6420     4.6700     2.9460 h1         1 3KZ       0.034200
     43 H13          2.5990     3.5150     3.7440 h1         1 3KZ       0.034700
     44 H14          3.0840     3.6690     5.4410 h1         1 3KZ       0.034700
     45 H15          0.5620     2.1620     3.1490 hc         1 3KZ       0.062700
     46 H16         -2.3260     1.9640     7.7810 h1         1 3KZ       0.102700
     47 H17          2.0250     1.4720     4.9980 hc         1 3KZ       0.071700
     48 H18         -1.0060     1.5520     9.6630 hc         1 3KZ       0.055367
     49 H19         -0.7190     0.0760     8.7320 hc         1 3KZ       0.055367
     50 H20         -1.8750     0.0670    10.0720 hc         1 3KZ       0.055367
     51 H21          0.0780     3.1440     6.6030 hc         1 3KZ       0.037367
     52 H22          1.7210     2.8390     7.1850 hc         1 3KZ       0.037367
     53 H23          0.6150     1.4860     6.9080 hc         1 3KZ       0.037367
     54 H24          3.0580     6.0020     5.3670 h1         1 3KZ       0.031367
     55 H25          1.5950     6.8870     4.9140 h1         1 3KZ       0.031367
     56 H26          2.5510     6.0650     3.6730 h1         1 3KZ       0.031367
     57 H27         -5.5930     0.3760     9.7160 hn         1 3KZ       0.369500
     58 C31          2.2050     6.0180     4.6990 c3         1 3KZ       0.153100
@<TRIPOS>BOND
     1     4     2 ar  
     2     4    12 ar  
     3     2     1 ar  
     4    30    12 1   
     5    12     7 ar  
     6    18    21 1   
     7    18    27 1   
     8     1     3 ar  
     9    58    27 1   
    10    21    23 1   
    11    21    19 1   
    12     7     3 ar  
    13     7     8 1   
    14    27    17 1   
    15    19     9 1   
    16    19    16 1   
    17     8     9 ar  
    18     8     5 ar  
    19    17    16 1   
    20     9     6 ar  
    21     5    11 ar  
    22     6    10 ar  
    23    22    20 1   
    24    11    10 ar  
    25    11    29 1   
    26    10    25 1   
    27    29    15 1   
    28    20    25 1   
    29    20    14 1   
    30    25    13 1   
    31    15    13 1   
    32    13    26 2   
    33    14    28 2   
    34    14    24 1   
    35    26    24 1   
    36     1    31 1   
    37     2    32 1   
    38     3    33 1   
    39     4    34 1   
    40     5    35 1   
    41     6    36 1   
    42    15    37 1   
    43    15    38 1   
    44    16    39 1   
    45    16    40 1   
    46    17    41 1   
    47    17    42 1   
    48    18    43 1   
    49    18    44 1   
    50    19    45 1   
    51    20    46 1   
    52    21    47 1   
    53    22    48 1   
    54    22    49 1   
    55    22    50 1   
    56    23    51 1   
    57    23    52 1   
    58    23    53 1   
    59    58    54 1   
    60    58    55 1   
    61    58    56 1   
    62    24    57 1   
@<TRIPOS>SUBSTRUCTURE
     1 3KZ         1 TEMP              0 ****  ****    0 ROOT
