@<TRIPOS>MOLECULE
3KZ
   58    62     1     0     0
SMALL
bcc


@<TRIPOS>ATOM
      1 C26          0.0000     0.0000     0.0000 ca         1 3KZ      -0.112000
      2 C27          1.3830     0.0000     0.0000 ca         1 3KZ      -0.075000
      3 C25         -0.6940     0.0010     1.1920 ca         1 3KZ      -0.066000
      4 C28          2.0800     0.0000     1.1940 ca         1 3KZ      -0.134000
      5 C3          -1.5340    -1.0950     4.0320 ca         1 3KZ      -0.090000
      6 C4          -1.3270     1.0830     5.7430 ca         1 3KZ      -0.142000
      7 C24          0.0000    -0.0040     2.4000 cp         1 3KZ      -0.056000
      8 C2          -0.7400    -0.0040     3.6850 cp         1 3KZ      -0.030000
      9 C1          -0.6420     1.0880     4.5450 ca         1 3KZ      -0.049300
     10 C5          -2.1110    -0.0060     6.0920 ca         1 3KZ      -0.039400
     11 C6          -2.2290    -1.0970     5.2300 ca         1 3KZ       0.110100
     12 C29          1.3960     0.0010     2.3960 ca         1 3KZ       0.113900
     13 C9          -3.6330    -1.0770     7.6030 c2         1 3KZ       0.402200
     14 C14         -3.8670     1.2510     9.0680 c          1 3KZ       0.573500
     15 C8          -3.4450    -2.3800     6.8700 c3         1 3KZ       0.207100
     16 C22         -0.6140     3.5560     4.2860 c3         1 3KZ      -0.032400
     17 C21          0.2720     4.7600     3.9610 c3         1 3KZ       0.156800
     18 C19          2.2420     3.5970     4.7630 c3         1 3KZ       0.158800
     19 C12          0.2110     2.2720     4.1680 c3         1 3KZ      -0.002400
     20 C13         -2.5860     1.0470     8.2960 c3         1 3KZ       0.059500
     21 C18          1.4130     2.3590     5.1130 c3         1 3KZ      -0.053700
     22 C17         -1.4650     0.6570     9.2610 c3         1 3KZ      -0.012100
     23 C23          0.9210     2.4650     6.5580 c3         1 3KZ      -0.023100
     24 N16         -4.7660     0.2500     9.1660 ns         1 3KZ       0.074100
     25 N10         -2.7840    -0.0230     7.3170 nh         1 3KZ      -0.258000
     26 N11         -4.5500    -0.9630     8.5050 n2         1 3KZ      -0.604300
     27 N20          1.4080     4.7990     4.8920 n3         1 3KZ      -0.544600
     28 O15         -4.1010     2.3320     9.5650 o          1 3KZ      -0.655500
     29 O7          -3.0230    -2.1510     5.5330 os         1 3KZ      -0.301900
     30 F30          2.0770     0.0010     3.5630 f          1 3KZ      -0.124900
     31 H1          -0.5400     0.0020    -0.9390 ha         1 3KZ       0.108000
     32 H2           1.9230    -0.0010    -0.9390 ha         1 3KZ       0.107000
     33 H3          -1.7770     0.0010     1.1890 ha         1 3KZ       0.115000
     34 H4           3.1640     0.0020     1.1880 ha         1 3KZ       0.120000
     35 H5          -1.6070    -1.9450     3.3630 ha         1 3KZ       0.123000
     36 H6          -1.2520     1.9320     6.4120 ha         1 3KZ       0.150000
     37 H7          -4.3840    -2.9190     6.8590 h1         1 3KZ       0.033200
     38 H8          -2.6950    -2.9700     7.3830 h1         1 3KZ       0.033200
     39 H9          -1.4410     3.5190     3.5880 hc         1 3KZ       0.027200
     40 H10         -0.9920     3.6500     5.2970 hc         1 3KZ       0.027200
     41 H11         -0.3070     5.6700     4.0600 h1         1 3KZ       0.008200
     42 H12          0.6420     4.6700     2.9460 h1         1 3KZ       0.008200
     43 H13          2.5990     3.5150     3.7440 h1         1 3KZ       0.009700
     44 H14          3.0840     3.6690     5.4410 h1         1 3KZ       0.009700
     45 H15          0.5620     2.1620     3.1490 hc         1 3KZ       0.042700
     46 H16         -2.3260     1.9640     7.7810 h1         1 3KZ       0.076700
     47 H17          2.0250     1.4720     4.9980 hc         1 3KZ       0.049700
     48 H18         -1.0060     1.5520     9.6630 hc         1 3KZ       0.020367
     49 H19         -0.7190     0.0760     8.7320 hc         1 3KZ       0.020367
     50 H20         -1.8750     0.0670    10.0720 hc         1 3KZ       0.020367
     51 H21          0.0780     3.1440     6.6030 hc         1 3KZ       0.014700
     52 H22          1.7210     2.8390     7.1850 hc         1 3KZ       0.014700
     53 H23          0.6150     1.4860     6.9080 hc         1 3KZ       0.014700
     54 H24          3.0580     6.0020     5.3670 h1         1 3KZ      -0.000300
     55 H25          1.5950     6.8870     4.9140 h1         1 3KZ      -0.000300
     56 H26          2.5510     6.0650     3.6730 h1         1 3KZ      -0.000300
     57 H27         -5.5930     0.3760     9.7160 hn         1 3KZ       0.209500
     58 C31          2.2050     6.0180     4.6990 c3         1 3KZ       0.187100
@<TRIPOS>BOND
     1     1     2 ar  
     2     1     3 ar  
     3     1    31 1   
     4     2     4 ar  
     5     2    32 1   
     6     3     7 ar  
     7     3    33 1   
     8     4    12 ar  
     9     4    34 1   
    10     5     8 ar  
    11     5    11 ar  
    12     5    35 1   
    13     6     9 ar  
    14     6    10 ar  
    15     6    36 1   
    16     7     8 1   
    17     7    12 ar  
    18     8     9 ar  
    19     9    19 1   
    20    10    11 ar  
    21    10    25 1   
    22    11    29 1   
    23    12    30 1   
    24    13    15 1   
    25    13    25 1   
    26    13    26 2   
    27    14    20 1   
    28    14    24 1   
    29    14    28 2   
    30    15    29 1   
    31    15    37 1   
    32    15    38 1   
    33    16    17 1   
    34    16    19 1   
    35    16    39 1   
    36    16    40 1   
    37    17    27 1   
    38    17    41 1   
    39    17    42 1   
    40    18    21 1   
    41    18    27 1   
    42    18    43 1   
    43    18    44 1   
    44    19    21 1   
    45    19    45 1   
    46    20    22 1   
    47    20    25 1   
    48    20    46 1   
    49    21    23 1   
    50    21    47 1   
    51    22    48 1   
    52    22    49 1   
    53    22    50 1   
    54    23    51 1   
    55    23    52 1   
    56    23    53 1   
    57    24    26 1   
    58    24    57 1   
    59    27    58 1   
    60    54    58 1   
    61    55    58 1   
    62    56    58 1   
@<TRIPOS>SUBSTRUCTURE
     1 3KZ         1 TEMP              0 ****  ****    0 ROOT
