@<TRIPOS>MOLECULE
3L0
   57    61     1     0     0
SMALL
bcc


@<TRIPOS>ATOM
      1 C1           0.0000     0.0000     0.0000 c3         1 3L0       0.178100
      2 N2           1.4690     0.0000     0.0000 nq         1 3L0      -0.537600
      3 C3           1.9990     0.0000     1.3760 cy         1 3L0       0.119300
      4 C4           3.0540     1.0120     0.9110 cy         1 3L0       0.067200
      5 C5           4.3240     0.3760     0.3430 c3         1 3L0      -0.027100
      6 C6           1.9980     1.3690    -0.1440 cy         1 3L0       0.119300
      7 N7           3.3260     2.0850     1.8780 nh         1 3L0      -0.378000
      8 C8           3.6230     1.5330     3.2070 c3         1 3L0       0.172100
      9 C9           4.3630     2.9070     1.4340 ca         1 3L0       0.022600
     10 C10          5.6310     2.3840     1.2350 ca         1 3L0      -0.179000
     11 C11          6.6590     3.2010     0.7890 ca         1 3L0      -0.042400
     12 N12          7.9430     2.6760     0.6150 nh         1 3L0      -0.257000
     13 C13          8.2380     1.2870     0.9640 c3         1 3L0       0.056500
     14 C15          8.7570     1.2210     2.4020 c3         1 3L0      -0.011100
     15 C16          9.2880     0.7510     0.0230 c          1 3L0       0.574500
     16 O17          9.3600    -0.4400    -0.1980 o          1 3L0      -0.654500
     17 N18         10.1460     1.6040    -0.5730 ns         1 3L0       0.074100
     18 N19          9.9990     2.9870    -0.4240 n2         1 3L0      -0.602300
     19 C20          8.9350     3.4920     0.1030 c2         1 3L0       0.399200
     20 C21          8.7770     4.9860     0.2090 c3         1 3L0       0.209100
     21 O22          7.4130     5.3610     0.0710 os         1 3L0      -0.302900
     22 C23          6.4260     4.5510     0.5280 ca         1 3L0       0.117100
     23 C24          5.1610     5.0790     0.7290 ca         1 3L0      -0.097000
     24 C25          4.1260     4.2650     1.1820 cp         1 3L0       0.000000
     25 C26          2.7740     4.8320     1.3920 cp         1 3L0      -0.018000
     26 C27          1.6880     4.3410     0.6670 ca         1 3L0      -0.101000
     27 C28          0.4310     4.8730     0.8670 ca         1 3L0      -0.102000
     28 C29          0.2460     5.8930     1.7830 ca         1 3L0      -0.101000
     29 C30          1.3190     6.3850     2.5050 ca         1 3L0      -0.102000
     30 C31          2.5790     5.8560     2.3180 ca         1 3L0      -0.101000
     31 H1          -0.3610     0.3400    -0.9630 h1         1 3L0       0.004033
     32 H2          -0.3610    -1.0040     0.1870 h1         1 3L0       0.004033
     33 H3          -0.3610     0.6640     0.7760 h1         1 3L0       0.004033
     34 H5           2.4260    -0.9530     1.6640 h1         1 3L0       0.039950
     35 H6           1.3040     0.4160     2.0960 h1         1 3L0       0.039950
     36 H7           4.9590     0.0490     1.1570 hc         1 3L0       0.025700
     37 H8           4.8540     1.1050    -0.2590 hc         1 3L0       0.025700
     38 H9           4.0570    -0.4750    -0.2720 hc         1 3L0       0.025700
     39 H10          2.4240     1.5560    -1.1220 h1         1 3L0       0.039950
     40 H11          1.3020     2.1280     0.1950 h1         1 3L0       0.039950
     41 H12          2.7030     1.4220     3.7660 h1         1 3L0       0.008033
     42 H13          4.2880     2.2050     3.7360 h1         1 3L0       0.008033
     43 H14          4.0990     0.5660     3.0980 h1         1 3L0       0.008033
     44 H15          5.8320     1.3480     1.4810 ha         1 3L0       0.150000
     45 H16          7.3360     0.6930     0.8730 h1         1 3L0       0.073700
     46 H17          8.5690     0.2350     2.8090 hc         1 3L0       0.019367
     47 H18          9.8230     1.4180     2.4100 hc         1 3L0       0.019367
     48 H19          8.2480     1.9640     3.0040 hc         1 3L0       0.019367
     49 H20         10.8960     1.2430    -1.1290 hn         1 3L0       0.210500
     50 H21          9.1230     5.3000     1.1870 h1         1 3L0       0.034700
     51 H22          9.3430     5.4500    -0.5890 h1         1 3L0       0.034700
     52 H23          4.9770     6.1290     0.5350 ha         1 3L0       0.127000
     53 H24          1.8320     3.5420    -0.0500 ha         1 3L0       0.119000
     54 H25         -0.4130     4.4920     0.3040 ha         1 3L0       0.101000
     55 H26         -0.7420     6.3100     1.9350 ha         1 3L0       0.101000
     56 H27          1.1680     7.1820     3.2230 ha         1 3L0       0.101000
     57 H28          3.4190     6.2420     2.8840 ha         1 3L0       0.119000
@<TRIPOS>BOND
     1     1     2 1   
     2     1    31 1   
     3     1    32 1   
     4     1    33 1   
     5     2     3 1   
     6     2     6 1   
     7     3     4 1   
     8     3    34 1   
     9     3    35 1   
    10     4     5 1   
    11     4     6 1   
    12     4     7 1   
    13     5    36 1   
    14     5    37 1   
    15     5    38 1   
    16     6    39 1   
    17     6    40 1   
    18     7     8 1   
    19     7     9 1   
    20     8    41 1   
    21     8    42 1   
    22     8    43 1   
    23     9    10 ar  
    24     9    24 ar  
    25    10    11 ar  
    26    10    44 1   
    27    11    12 1   
    28    11    22 ar  
    29    12    13 1   
    30    12    19 1   
    31    13    14 1   
    32    13    15 1   
    33    13    45 1   
    34    14    46 1   
    35    14    47 1   
    36    14    48 1   
    37    15    16 2   
    38    15    17 1   
    39    17    18 1   
    40    17    49 1   
    41    18    19 2   
    42    19    20 1   
    43    20    21 1   
    44    20    50 1   
    45    20    51 1   
    46    21    22 1   
    47    22    23 ar  
    48    23    24 ar  
    49    23    52 1   
    50    24    25 1   
    51    25    26 ar  
    52    25    30 ar  
    53    26    27 ar  
    54    26    53 1   
    55    27    28 ar  
    56    27    54 1   
    57    28    29 ar  
    58    28    55 1   
    59    29    30 ar  
    60    29    56 1   
    61    30    57 1   
@<TRIPOS>SUBSTRUCTURE
     1 3L0         1 TEMP              0 ****  ****    0 ROOT
