@<TRIPOS>MOLECULE
molecule
   57    61     1     0     0
SMALL
bcc


@<TRIPOS>ATOM
      1 C1           0.0000     0.0000     0.0000 c3         1 3L0       0.116100
      2 N2           1.4690     0.0000     0.0000 nq         1 3L0      -0.656600
      3 C3           1.9990     0.0000     1.3760 cy         1 3L0       0.111800
      4 C4           3.0540     1.0120     0.9110 cy         1 3L0       0.140200
      5 C5           4.3240     0.3760     0.3430 c3         1 3L0      -0.103100
      6 C6           1.9980     1.3690    -0.1440 cy         1 3L0       0.111800
      7 N7           3.3260     2.0850     1.8780 nh         1 3L0      -0.597000
      8 C8           3.6230     1.5330     3.2070 c3         1 3L0       0.157100
      9 C9           4.3630     2.9070     1.4340 ca         1 3L0       0.098600
     10 C10          5.6310     2.3840     1.2350 ca         1 3L0      -0.191000
     11 C11          6.6590     3.2010     0.7890 ca         1 3L0       0.104600
     12 N12          7.9430     2.6760     0.6150 nh         1 3L0      -0.670000
     13 C13          8.2380     1.2870     0.9640 c3         1 3L0       0.171500
     14 C15          8.7570     1.2210     2.4020 c3         1 3L0      -0.110100
     15 C16          9.2880     0.7510     0.0230 c          1 3L0       0.670500
     16 O17          9.3600    -0.4400    -0.1980 o          1 3L0      -0.619500
     17 N18         10.1460     1.6040    -0.5730 ns         1 3L0      -0.322900
     18 N19          9.9990     2.9870    -0.4240 n2         1 3L0      -0.514300
     19 C20          8.9350     3.4920     0.1030 c2         1 3L0       0.540200
     20 C21          8.7770     4.9860     0.2090 c3         1 3L0       0.140100
     21 O22          7.4130     5.3610     0.0710 os         1 3L0      -0.323900
     22 C23          6.4260     4.5510     0.5280 ca         1 3L0       0.095100
     23 C24          5.1610     5.0790     0.7290 ca         1 3L0      -0.112000
     24 C25          4.1260     4.2650     1.1820 cp         1 3L0      -0.016000
     25 C26          2.7740     4.8320     1.3920 cp         1 3L0      -0.021000
     26 C27          1.6880     4.3410     0.6670 ca         1 3L0      -0.113000
     27 C28          0.4310     4.8730     0.8670 ca         1 3L0      -0.133000
     28 C29          0.2460     5.8930     1.7830 ca         1 3L0      -0.126000
     29 C30          1.3190     6.3850     2.5050 ca         1 3L0      -0.133000
     30 C31          2.5790     5.8560     2.3180 ca         1 3L0      -0.113000
     31 H1          -0.3610     0.3400    -0.9630 h1         1 3L0       0.038033
     32 H2          -0.3610    -1.0040     0.1870 h1         1 3L0       0.038033
     33 H3          -0.3610     0.6640     0.7760 h1         1 3L0       0.038033
     34 H5           2.4260    -0.9530     1.6640 h1         1 3L0       0.066450
     35 H6           1.3040     0.4160     2.0960 h1         1 3L0       0.066450
     36 H7           4.9590     0.0490     1.1570 hc         1 3L0       0.050367
     37 H8           4.8540     1.1050    -0.2590 hc         1 3L0       0.050367
     38 H9           4.0570    -0.4750    -0.2720 hc         1 3L0       0.050367
     39 H10          2.4240     1.5560    -1.1220 h1         1 3L0       0.066450
     40 H11          1.3020     2.1280     0.1950 h1         1 3L0       0.066450
     41 H12          2.7030     1.4220     3.7660 h1         1 3L0       0.038033
     42 H13          4.2880     2.2050     3.7360 h1         1 3L0       0.038033
     43 H14          4.0990     0.5660     3.0980 h1         1 3L0       0.038033
     44 H15          5.8320     1.3480     1.4810 ha         1 3L0       0.154000
     45 H16          7.3360     0.6930     0.8730 h1         1 3L0       0.098700
     46 H17          8.5690     0.2350     2.8090 hc         1 3L0       0.055033
     47 H18          9.8230     1.4180     2.4100 hc         1 3L0       0.055033
     48 H19          8.2480     1.9640     3.0040 hc         1 3L0       0.055033
     49 H20         10.8960     1.2430    -1.1290 hn         1 3L0       0.369500
     50 H21          9.1230     5.3000     1.1870 h1         1 3L0       0.084200
     51 H22          9.3430     5.4500    -0.5890 h1         1 3L0       0.084200
     52 H23          4.9770     6.1290     0.5350 ha         1 3L0       0.157000
     53 H24          1.8320     3.5420    -0.0500 ha         1 3L0       0.138000
     54 H25         -0.4130     4.4920     0.3040 ha         1 3L0       0.128000
     55 H26         -0.7420     6.3100     1.9350 ha         1 3L0       0.127000
     56 H27          1.1680     7.1820     3.2230 ha         1 3L0       0.128000
     57 H28          3.4190     6.2420     2.8840 ha         1 3L0       0.138000
@<TRIPOS>BOND
     1    17    18 1
     2    17    15 1
     3    18    19 2
     4    16    15 2
     5    15    13 1
     6    19    20 1
     7    19    12 1
     8    20    21 1
     9    12    13 1
    10    12    11 1
    11    13    14 1
    12    21    22 1
    13    11    22 ar
    14    11    10 ar
    15    22    23 ar
    16    10     9 ar
    17    23    24 ar
    18     5     4 1
    19     9    24 ar
    20     9     7 1
    21     6     4 1
    22     6     2 1
    23    24    25 1
    24     4     7 1
    25     4     3 1
    26     7     8 1
    27     2     3 1
    28     2     1 1
    29    26    25 ar
    30    26    27 ar
    31    25    30 ar
    32    27    28 ar
    33    30    29 ar
    34    28    29 ar
    35     1    31 1
    36     1    32 1
    37     1    33 1
    38     3    34 1
    39     3    35 1
    40     5    36 1
    41     5    37 1
    42     5    38 1
    43     6    39 1
    44     6    40 1
    45     8    41 1
    46     8    42 1
    47     8    43 1
    48    10    44 1
    49    13    45 1
    50    14    46 1
    51    14    47 1
    52    14    48 1
    53    17    49 1
    54    20    50 1
    55    20    51 1
    56    23    52 1
    57    26    53 1
    58    27    54 1
    59    28    55 1
    60    29    56 1
    61    30    57 1
@<TRIPOS>SUBSTRUCTURE
     1 3L0         1 TEMP              0 ****  ****    0 ROOT
