@<TRIPOS>MOLECULE
3L1
   31    33     1     0     0
SMALL
bcc


@<TRIPOS>ATOM
      1 N6           0.0000     0.0000     0.0000 nv         1 3L1      -0.483500
      2 C6           1.3840     0.0000     0.0000 ca         1 3L1       0.592200
      3 N1           2.0640     0.0000     1.1410 nb         1 3L1      -0.745000
      4 C2           3.3850    -0.0000     1.1500 ca         1 3L1       0.691900
      5 N3           4.0990     0.0000     0.0440 nb         1 3L1      -0.685000
      6 C4           3.5060     0.0010    -1.1450 ca         1 3L1       0.269800
      7 C5           2.1020    -0.0060    -1.2090 ca         1 3L1      -0.242200
      8 N7           1.7610    -0.0130    -2.5200 nc         1 3L1      -0.500100
      9 C8           2.8410    -0.0160    -3.2470 cd         1 3L1       0.254700
     10 N9           3.9430     0.0010    -2.4450 na         1 3L1       0.210000
     11 C1'          5.3380     0.0030    -2.8910 c3         1 3L1       0.161800
     12 O4'          5.4460    -0.5370    -4.2260 os         1 3L1      -0.390600
     13 C2'          5.8610     1.4540    -3.0440 c3         1 3L1      -0.096400
     14 C3'          7.0070     1.2790    -4.0700 c3         1 3L1       0.160100
     15 O3'          8.2680     1.1970    -3.4020 oh         1 3L1      -0.572800
     16 C4'          6.6830    -0.0520    -4.7760 c3         1 3L1       0.159100
     17 C5'          6.5270     0.1810    -6.2800 c3         1 3L1       0.220400
     18 O5'          6.3270    -1.0720    -6.9370 oh         1 3L1      -0.578800
     19 HN6         -0.5000    -0.1320     0.8570 hn         1 3L1       0.276300
     20 HN6A        -0.5000     0.1340    -0.8560 hn         1 3L1       0.276300
     21 H2           3.9000    -0.0000     2.1030 h5         1 3L1      -0.005900
     22 H8           2.8600    -0.0300    -4.3300 h5         1 3L1       0.040800
     23 H1'          5.9650    -0.5550    -2.2050 h2         1 3L1       0.060700
     24 H2'          5.0870     2.1010    -3.4390 hc         1 3L1       0.046200
     25 H2'A         6.2430     1.8260    -2.1010 hc         1 3L1       0.046200
     26 H3'          7.0020     2.0950    -4.7830 h1         1 3L1       0.012700
     27 HO3'         8.7860     1.9550    -3.6140 ho         1 3L1       0.395000
     28 H4'          7.4740    -0.7680    -4.5880 h1         1 3L1       0.051700
     29 H5'          7.4230     0.6520    -6.6670 h1         1 3L1      -0.008300
     30 H5'A         5.6740     0.8230    -6.4600 h1         1 3L1      -0.008300
     31 HO5'         6.2030    -0.9260    -7.8600 ho         1 3L1       0.391000
@<TRIPOS>BOND
     1     1     2 1   
     2     1    19 1   
     3     1    20 1   
     4     2     3 ar  
     5     2     7 ar  
     6     3     4 ar  
     7     4     5 ar  
     8     4    21 1   
     9     5     6 ar  
    10     6     7 ar  
    11     6    10 1   
    12     7     8 1   
    13     8     9 2   
    14     9    10 1   
    15     9    22 1   
    16    10    11 1   
    17    11    12 1   
    18    11    13 1   
    19    11    23 1   
    20    12    16 1   
    21    13    14 1   
    22    13    24 1   
    23    13    25 1   
    24    14    15 1   
    25    14    16 1   
    26    14    26 1   
    27    15    27 1   
    28    16    17 1   
    29    16    28 1   
    30    17    18 1   
    31    17    29 1   
    32    17    30 1   
    33    18    31 1   
@<TRIPOS>SUBSTRUCTURE
     1 3L1         1 TEMP              0 ****  ****    0 ROOT
