@<TRIPOS>MOLECULE
3L2
   70    74     1     0     0
SMALL
bcc


@<TRIPOS>ATOM
      1 O           0.4370   -0.1330   -0.0970 os        1 3L2     -0.437900
      2 C1         -2.7520   -0.1620   -1.0220 c3        1 3L2     -0.085700
      3 O6         -4.3260   -2.5560    0.6030 o         1 3L2     -0.530000
      4 C23        -4.2790   -1.3260    0.6300 c         1 3L2      0.610100
      5 C24        -4.1970   -0.3740   -0.5470 c3        1 3L2      0.106100
      6 O7         -4.8550    0.8440   -0.2750 oh        1 3L2     -0.580800
      7 C          -2.1650   -1.4740   -1.4950 c3        1 3L2     -0.103100
      8 O5         -4.3310   -0.6890    1.8390 os        1 3L2     -0.453900
      9 C22        -4.5220   -1.5270    2.9950 c3        1 3L2      0.137400
     10 C15        -4.9430   -0.6780    4.2120 c3        1 3L2     -0.050000
     11 C20        -5.6380    0.6340    3.7580 c3        1 3L2      0.184300
     12 C19        -7.0650    0.4480    3.3480 c2        1 3L2     -0.161200
     13 C18        -7.7900   -0.6480    3.6000 c2        1 3L2     -0.098400
     14 C21        -9.1940   -0.7900    3.1450 c3        1 3L2     -0.060900
     15 C17        -7.2380   -1.8140    4.3390 c3        1 3L2     -0.047200
     16 C16        -5.9280   -1.5140    5.0380 c3        1 3L2     -0.075400
     17 O4         -5.6820    1.6790    4.7480 os        1 3L2     -0.402600
     18 C12        -4.4650    1.8740    5.4530 c3        1 3L2      0.158100
     19 C11        -3.2600    2.0340    4.5130 c3        1 3L2     -0.115400
     20 C14        -3.6860   -0.3430    5.0750 c3        1 3L2     -0.039000
     21 C25        -2.9400   -1.5440    5.6020 c3        1 3L2     -0.097100
     22 C13        -4.1470    0.5840    6.2010 cx        1 3L2      0.038800
     23 O8         -3.3480    0.7000    7.3880 os        1 3L2     -0.388600
     24 C26        -4.6890    0.2080    7.5280 cx        1 3L2      0.079400
     25 C10        -2.7670    0.6010    4.2300 c3        1 3L2      0.144100
     26 O3         -1.4070    0.5550    4.6840 os        1 3L2     -0.420900
     27 C9         -0.5230   -0.2510    4.0150 c         1 3L2      0.640300
     28 O2         -0.9560   -0.9910    3.1260 o         1 3L2     -0.555000
     29 C8          0.8460   -0.0670    4.5100 ce        1 3L2     -0.181200
     30 C7          1.9590   -0.5540    3.9510 cf        1 3L2     -0.060000
     31 C6          2.1050   -1.4180    2.7940 cf        1 3L2     -0.076000
     32 C5          1.8120   -1.1540    1.5160 ce        1 3L2     -0.168200
     33 C4          1.1760    0.0800    1.0400 c         1 3L2      0.640300
     34 O1          1.2420    1.2250    1.4930 o         1 3L2     -0.540000
     35 C3         -0.5120    0.8730   -0.4750 c3        1 3L2      0.137400
     36 C2         -1.8900    0.4920    0.0450 c3        1 3L2     -0.114400
     37 H1         -2.8170    0.5460   -1.8990 hc        1 3L2      0.065700
     38 H2         -4.7970   -0.8340   -1.3880 h1        1 3L2      0.107700
     39 H3         -4.4600    1.2280    0.5190 ho        1 3L2      0.416000
     40 H4         -1.0850   -1.3430   -1.7510 hc        1 3L2      0.050033
     41 H5         -2.2430   -2.2540   -0.6980 hc        1 3L2      0.050033
     42 H6         -2.7090   -1.8380   -2.4000 hc        1 3L2      0.050033
     43 H7         -5.3090   -2.2900    2.7480 h1        1 3L2      0.069700
     44 H8         -3.5500   -2.0560    3.1790 h1        1 3L2      0.069700
     45 H9         -5.0640    1.0540    2.8780 h1        1 3L2      0.057700
     46 H10        -7.4930    1.3130    2.8180 ha        1 3L2      0.137000
     47 H11        -9.3090   -1.7230    2.5380 hc        1 3L2      0.044367
     48 H12        -9.5130    0.0800    2.5210 hc        1 3L2      0.044367
     49 H13        -9.8760   -0.8620    4.0290 hc        1 3L2      0.044367
     50 H14        -7.1160   -2.6710    3.6220 hc        1 3L2      0.052700
     51 H15        -7.9850   -2.1480    5.1110 hc        1 3L2      0.052700
     52 H16        -5.4470   -2.4870    5.3190 hc        1 3L2      0.052700
     53 H17        -6.1540   -0.9520    5.9830 hc        1 3L2      0.052700
     54 H18        -4.6460    2.7610    6.1090 h1        1 3L2      0.099700
     55 H19        -2.4590    2.6260    5.0220 hc        1 3L2      0.075700
     56 H20        -3.5480    2.5520    3.5680 hc        1 3L2      0.075700
     57 H21        -2.1750   -1.1960    6.3430 hc        1 3L2      0.053367
     58 H22        -3.6280   -2.2530    6.1190 hc        1 3L2      0.053367
     59 H23        -2.4050   -2.0800    4.7810 hc        1 3L2      0.053367
     60 H24        -4.7570   -0.8540    7.8290 h1        1 3L2      0.080700
     61 H25        -5.3800    0.8870    8.0600 h1        1 3L2      0.080700
     62 H26        -2.8110    0.3390    3.1390 h1        1 3L2      0.093700
     63 H27         0.9090    0.5600    5.4190 ha        1 3L2      0.163000
     64 H28         2.9310   -0.3150    4.4300 ha        1 3L2      0.145000
     65 H29         2.5580   -2.4000    3.0420 ha        1 3L2      0.145000
     66 H30         2.0000   -1.9010    0.7250 ha        1 3L2      0.160000
     67 H31        -0.2010    1.8780   -0.0880 h1        1 3L2      0.069700
     68 H32        -0.4690    0.8700   -1.5980 h1        1 3L2      0.069700
     69 H33        -2.3980    1.4240    0.4080 hc        1 3L2      0.064200
     70 H34        -1.7850   -0.2010    0.9260 hc        1 3L2      0.064200
@<TRIPOS>BOND
     1    1   33 1   
     2    1   35 1   
     3    2    5 1   
     4    2    7 1   
     5    2   36 1   
     6    2   37 1   
     7    3    4 2   
     8    4    5 1   
     9    4    8 1   
    10    5    6 1   
    11    5   38 1   
    12    6   39 1   
    13    7   40 1   
    14    7   41 1   
    15    7   42 1   
    16    8    9 1   
    17    9   10 1   
    18    9   43 1   
    19    9   44 1   
    20   10   11 1   
    21   10   16 1   
    22   10   20 1   
    23   11   12 1   
    24   11   17 1   
    25   11   45 1   
    26   12   13 2   
    27   12   46 1   
    28   13   14 1   
    29   13   15 1   
    30   14   47 1   
    31   14   48 1   
    32   14   49 1   
    33   15   16 1   
    34   15   50 1   
    35   15   51 1   
    36   16   52 1   
    37   16   53 1   
    38   17   18 1   
    39   18   19 1   
    40   18   22 1   
    41   18   54 1   
    42   19   25 1   
    43   19   55 1   
    44   19   56 1   
    45   20   21 1   
    46   20   22 1   
    47   20   25 1   
    48   21   57 1   
    49   21   58 1   
    50   21   59 1   
    51   22   23 1   
    52   22   24 1   
    53   23   24 1   
    54   24   60 1   
    55   24   61 1   
    56   25   26 1   
    57   25   62 1   
    58   26   27 1   
    59   27   28 2   
    60   27   29 1   
    61   29   30 2   
    62   29   63 1   
    63   30   31 1   
    64   30   64 1   
    65   31   32 2   
    66   31   65 1   
    67   32   33 1   
    68   32   66 1   
    69   33   34 2   
    70   35   36 1   
    71   35   67 1   
    72   35   68 1   
    73   36   69 1   
    74   36   70 1   
@<TRIPOS>SUBSTRUCTURE
     1 3L2         1 TEMP              0 ****  ****    0 ROOT
