@<TRIPOS>MOLECULE
molecule
   70    74     1     0     0
SMALL
bcc


@<TRIPOS>ATOM
      1 O            0.0000     0.0000     0.0000 os         1 3L2      -0.449900
      2 C1          -3.0810    -0.7160    -1.0240 c3         1 3L2      -0.082700
      3 O6          -5.2050    -2.1140     0.9380 o          1 3L2      -0.555000
      4 C23         -4.6610    -1.0380     0.8730 c          1 3L2       0.648100
      5 C24         -4.4670    -0.3810    -0.4680 c3         1 3L2       0.108100
      6 O7          -4.6100     1.0350    -0.3310 oh         1 3L2      -0.585800
      7 C           -2.4730    -1.8800    -0.2430 c3         1 3L2      -0.114100
      8 O5          -4.2260    -0.4360     1.9900 os         1 3L2      -0.399900
      9 C22         -4.0620    -1.2680     3.1640 c3         1 3L2       0.135400
     10 C15         -4.7190    -0.6500     4.3960 c3         1 3L2      -0.085000
     11 C20         -5.2540     0.7460     4.0740 c3         1 3L2       0.199300
     12 C19         -6.4550     0.6410     3.1710 c2         1 3L2      -0.156200
     13 C18         -7.1470    -0.4380     3.0200 c2         1 3L2      -0.105400
     14 C21         -8.3270    -0.3890     2.0840 c3         1 3L2      -0.057900
     15 C17         -6.8640    -1.7330     3.7130 c3         1 3L2      -0.048200
     16 C16         -5.8770    -1.5280     4.8630 c3         1 3L2      -0.074400
     17 O4          -5.6320     1.4590     5.2510 os         1 3L2      -0.407600
     18 C12         -4.6660     1.5140     6.3070 c3         1 3L2       0.175100
     19 C11         -3.3000     1.9090     5.6910 c3         1 3L2      -0.126400
     20 C14         -3.6750    -0.5260     5.5310 c3         1 3L2      -0.041000
     21 C25         -2.9530    -1.8370     5.8530 c3         1 3L2      -0.074100
     22 C13         -4.4100     0.0600     6.7500 cx         1 3L2       0.012800
     23 O8          -4.0510    -0.2730     8.0770 op         1 3L2      -0.360600
     24 C26         -5.3400    -0.7200     7.6440 cx         1 3L2       0.069400
     25 C10         -2.7170     0.6170     5.0990 c3         1 3L2       0.141100
     26 O3          -1.3610     0.3810     5.5570 os         1 3L2      -0.403900
     27 C9          -0.4090     0.5870     4.6250 c          1 3L2       0.730300
     28 O2          -0.7500     1.1170     3.5840 o          1 3L2      -0.579000
     29 C8           1.0020     0.2710     4.8240 ce         1 3L2      -0.166200
     30 C7           1.8110     0.0410     3.7610 cf         1 3L2      -0.154000
     31 C6           1.2590     0.0180     2.4150 cf         1 3L2      -0.016000
     32 C5           2.0320     0.0000     1.3080 ce         1 3L2      -0.278200
     33 C4           1.3450     0.0000     0.0000 c          1 3L2       0.646300
     34 O1           1.9810     0.0040    -1.0310 o          1 3L2      -0.540000
     35 C3          -0.7200     0.1340    -1.2470 c3         1 3L2       0.154400
     36 C2          -2.1750     0.5090    -0.9470 c3         1 3L2      -0.075400
     37 H1          -3.1830    -1.0090    -2.0620 hc         1 3L2       0.055700
     38 H2          -5.2210    -0.7470    -1.1540 h1         1 3L2       0.068700
     39 H3          -5.2350     1.3500    -0.9620 ho         1 3L2       0.408000
     40 H4          -3.2660    -2.5050     0.1490 hc         1 3L2       0.051367
     41 H5          -1.8790    -1.4940     0.5770 hc         1 3L2       0.051367
     42 H6          -1.8430    -2.4660    -0.9000 hc         1 3L2       0.051367
     43 H7          -3.0050    -1.4000     3.3580 h1         1 3L2       0.065200
     44 H8          -4.5090    -2.2360     2.9750 h1         1 3L2       0.065200
     45 H9          -4.4810     1.3060     3.5620 h1         1 3L2       0.064700
     46 H10         -6.7570     1.5220     2.6180 ha         1 3L2       0.133000
     47 H11         -8.1550     0.3640     1.3250 hc         1 3L2       0.042700
     48 H12         -8.4540    -1.3550     1.6120 hc         1 3L2       0.042700
     49 H13         -9.2210    -0.1410     2.6440 hc         1 3L2       0.042700
     50 H14         -7.7900    -2.1350     4.1070 hc         1 3L2       0.062700
     51 H15         -6.4400    -2.4310     3.0020 hc         1 3L2       0.062700
     52 H16         -5.4940    -2.4890     5.1830 hc         1 3L2       0.054700
     53 H17         -6.3840    -1.0440     5.6890 hc         1 3L2       0.054700
     54 H18         -4.9640     2.1590     7.1260 h1         1 3L2       0.108700
     55 H19         -3.4420     2.6470     4.9100 hc         1 3L2       0.077700
     56 H20         -2.6430     2.2980     6.4590 hc         1 3L2       0.077700
     57 H21         -3.6830    -2.6140     6.0400 hc         1 3L2       0.048033
     58 H22         -2.3300    -2.1210     5.0130 hc         1 3L2       0.048033
     59 H23         -2.3350    -1.7020     6.7320 hc         1 3L2       0.048033
     60 H24         -6.1850    -0.1700     8.0400 h1         1 3L2       0.087200
     61 H25         -5.4220    -1.7790     7.4300 h1         1 3L2       0.087200
     62 H26         -2.7180     0.6900     4.0190 h1         1 3L2       0.097700
     63 H27          0.2560    -0.4920     4.6320 ha         1 3L2       0.048000
     64 H28          1.6180     0.9450     3.1970 ha         1 3L2       0.179000
     65 H29          0.1820     0.0310     2.3010 ha         1 3L2       0.211000
     66 H30          3.1130     0.0020     1.3810 ha         1 3L2       0.176000
     67 H31         -0.2630     0.9110    -1.8480 h1         1 3L2       0.050700
     68 H32         -0.6920    -0.8050    -1.7860 h1         1 3L2       0.050700
     69 H33         -2.2350     0.9340     0.0470 hc         1 3L2       0.072200
     70 H34         -2.5090     1.2440    -1.6690 hc         1 3L2       0.072200
@<TRIPOS>BOND
     1    24    23 1   
     2    24    22 1   
     3    17    18 1   
     4    17    11 1   
     5    23    22 1   
     6    18    22 1   
     7    18    19 1   
     8    14    13 1   
     9    22    20 1   
    10    13    12 2   
    11    13    15 1   
    12    12    11 1   
    13    16    15 1   
    14    16    10 1   
    15    11    10 1   
    16    19    25 1   
    17    10    20 1   
    18    10     9 1   
    19    20    21 1   
    20    20    25 1   
    21    25    26 1   
    22    26    27 1   
    23     9     8 1   
    24     8     4 1   
    25    27    29 1   
    26    27    28 2   
    27    29    30 2   
    28     4     3 2   
    29     4     5 1   
    30    30    31 1   
    31     5     6 1   
    32     5     2 1   
    33    31    32 2   
    34    32    33 1   
    35     2    36 1   
    36     2     7 1   
    37    36    35 1   
    38     1    33 1   
    39     1    35 1   
    40    33    34 2   
    41     2    37 1   
    42     5    38 1   
    43     6    39 1   
    44     7    40 1   
    45     7    41 1   
    46     7    42 1   
    47     9    43 1   
    48     9    44 1   
    49    11    45 1   
    50    12    46 1   
    51    14    47 1   
    52    14    48 1   
    53    14    49 1   
    54    15    50 1   
    55    15    51 1   
    56    16    52 1   
    57    16    53 1   
    58    18    54 1   
    59    19    55 1   
    60    19    56 1   
    61    21    57 1   
    62    21    58 1   
    63    21    59 1   
    64    24    60 1   
    65    24    61 1   
    66    25    62 1   
    67    29    63 1   
    68    30    64 1   
    69    31    65 1   
    70    32    66 1   
    71    35    67 1   
    72    35    68 1   
    73    36    69 1   
    74    36    70 1   
@<TRIPOS>SUBSTRUCTURE
     1 3L2         1 TEMP              0 ****  ****    0 ROOT
