@<TRIPOS>MOLECULE
molecule
   46    47     1     0     0
SMALL
bcc


@<TRIPOS>ATOM
      1 OAE          0.0000     0.0000     0.0000 o          1 3L3      -0.738833
      2 PBC          1.4800     0.0000     0.0000 p5         1 3L3       1.107100
      3 OAF          2.0160     0.0000     1.5180 o          1 3L3      -0.738833
      4 OAC          2.0160    -1.3150    -0.7590 o          1 3L3      -0.738833
      5 CAP          2.0850     1.4810    -0.8560 c2         1 3L3      -0.354600
      6 CAK          1.2290     2.3480    -1.3560 c2         1 3L3       0.022100
      7 OAU          1.6810     3.4560    -1.9960 os         1 3L3      -0.317900
      8 CAJ          0.6980     4.3520    -2.5140 c3         1 3L3       0.120400
      9 CAL          1.3930     5.5330    -3.1960 c3         1 3L3       0.240800
     10 NBA          2.1340     5.0540    -4.3650 nh         1 3L3      -0.744400
     11 CAN          3.4570     4.6520    -4.2310 c2         1 3L3       0.109000
     12 CAQ          4.0460     4.7020    -3.0500 c2         1 3L3      -0.391600
     13 PBD          5.7740     4.1770    -2.8770 p5         1 3L3       1.092100
     14 OAG          5.8600     2.9540    -1.8330 o          1 3L3      -0.700167
     15 OAH          6.6570     5.4100    -2.3340 o          1 3L3      -0.700167
     16 OAD          6.2930     3.7420    -4.1920 o          1 3L3      -0.700167
     17 CAM          1.4810     4.9990    -5.6740 c3         1 3L3       0.223800
     18 CAO          1.6890     6.3260    -6.4060 c3         1 3L3       0.022300
     19 N9           1.0370     6.2710    -7.7150 na         1 3L3      -0.213900
     20 C4          -0.2540     6.6340    -7.9920 cc         1 3L3       0.144800
     21 N3          -1.2670     7.1120    -7.2580 nc         1 3L3      -0.706100
     22 C2          -2.4330     7.3800    -7.8030 cd         1 3L3       0.095800
     23 N2          -3.4420     7.8690    -7.0100 nz         1 3L3      -0.618600
     24 N1          -2.6700     7.1860    -9.1310 ns         1 3L3      -0.476400
     25 C6          -1.6950     6.7050    -9.9340 c          1 3L3       0.681000
     26 O6          -1.8960     6.5280   -11.1230 o          1 3L3      -0.718500
     27 C5          -0.4350     6.4130    -9.3620 cd         1 3L3       0.080800
     28 N7           0.7350     5.9340    -9.8500 nd         1 3L3      -0.603000
     29 C8           1.6050     5.8550    -8.8840 cc         1 3L3       0.411700
     30 Br8          3.3850     5.2430    -9.0710 br         1 3L3      -0.129200
     31 H3           3.1500     1.6520    -0.9550 ha         1 3L3       0.158000
     32 H4           0.1640     2.1770    -1.2570 h4         1 3L3       0.121000
     33 H5           0.0790     3.8320    -3.2350 h1         1 3L3       0.005700
     34 H6           0.0790     4.7170    -1.7030 h1         1 3L3       0.005700
     35 H7           0.6500     6.2570    -3.5100 h1         1 3L3       0.040200
     36 H8           2.0790     6.0000    -2.4990 h1         1 3L3       0.040200
     37 H9           4.0050     4.2980    -5.0960 h4         1 3L3       0.159000
     38 H10          3.4980     5.0570    -2.1860 ha         1 3L3       0.124000
     39 H13          0.4200     4.8240    -5.5410 h1         1 3L3       0.050700
     40 H14          1.9090     4.1940    -6.2580 h1         1 3L3       0.050700
     41 H15          1.2600     7.1320    -5.8220 h1         1 3L3       0.061200
     42 H16          2.7500     6.5020    -6.5380 h1         1 3L3       0.061200
     43 H17         -3.8300     8.6890    -7.4330 hn         1 3L3       0.363133
     44 H18         -3.0740     8.1010    -6.1080 hn         1 3L3       0.363133
     45 H19         -3.5690     7.4010    -9.5130 hn         1 3L3       0.274500
     46 H23         -4.1550     7.1740    -6.9110 hn         1 3L3       0.363133
@<TRIPOS>BOND
     1    30    29 1
     2    15    13 1
     3     1     2 1
     4    29    28 2
     5    29    19 1
     6    28    27 1
     7    14    13 1
     8    18    19 1
     9    18    17 1
    10    19    20 1
    11    11    10 1
    12    11    12 2
    13    27    20 2
    14    27    25 1
    15    13    12 1
    16    13    16 1
    17    20    21 1
    18     3     2 1
    19     2     5 1
    20     2     4 1
    21    26    25 2
    22    25    24 1
    23    10    17 1
    24    10     9 1
    25    21    22 2
    26     5     6 2
    27    24    22 1
    28    22    23 1
    29     9     8 1
    30     6     7 1
    31     8     7 1
    32     5    31 1
    33     6    32 1
    34     8    33 1
    35     8    34 1
    36     9    35 1
    37     9    36 1
    38    11    37 1
    39    12    38 1
    40    17    39 1
    41    17    40 1
    42    18    41 1
    43    18    42 1
    44    23    43 1
    45    23    44 1
    46    24    45 1
    47    46    23 1
@<TRIPOS>SUBSTRUCTURE
     1 3L3         1 TEMP              0 ****  ****    0 ROOT
