@<TRIPOS>MOLECULE
molecule
   45    46     1     0     0
SMALL
bcc


@<TRIPOS>ATOM
      1 OAG          0.0000     0.0000     0.0000 o          1 3L4      -0.764833
      2 PBB          1.6100     0.0000     0.0000 p5         1 3L4       1.000700
      3 OAH          2.1460     0.0000     1.5190 o          1 3L4      -0.764833
      4 OAD          2.1040    -1.2080    -0.6970 o          1 3L4      -0.764833
      5 CAP          2.2180     1.4890    -0.8590 c3         1 3L4      -0.009800
      6 OAT          1.7420     1.4890    -2.2060 os         1 3L4      -0.355600
      7 CAJ          0.3580     1.8270    -2.3340 c3         1 3L4       0.089400
      8 CAK         -0.0390     1.7960    -3.8100 c3         1 3L4       0.241800
      9 NAY          0.0740     0.4260    -4.3180 nh         1 3L4      -0.721400
     10 CAM          1.2700    -0.0140    -4.8720 c2         1 3L4       0.099000
     11 CAO          2.3040     0.8030    -4.9390 c2         1 3L4      -0.357600
     12 PBA          3.8660     0.2290    -5.6620 p5         1 3L4       1.103100
     13 OAE          4.2390     1.1460    -6.9310 o          1 3L4      -0.769167
     14 OAF          3.7090    -1.3020    -6.1330 o          1 3L4      -0.769167
     15 OAC          4.9420     0.3260    -4.6510 o          1 3L4      -0.769167
     16 CAL         -1.0750    -0.4810    -4.2430 c3         1 3L4       0.222800
     17 CAN         -1.9130    -0.3500    -5.5170 c3         1 3L4       0.013300
     18 N9          -3.0610    -1.2570    -5.4410 na         1 3L4      -0.201900
     19 C4          -4.2620    -0.9930    -4.8390 cc         1 3L4       0.124800
     20 N3          -4.7650     0.0580    -4.1820 nc         1 3L4      -0.668100
     21 C2          -5.9860     0.0350    -3.6970 cd         1 3L4       0.153800
     22 N2          -6.4600     1.1370    -3.0310 nz         1 3L4      -0.637600
     23 N1          -6.7970    -1.0520    -3.8370 ns         1 3L4      -0.477400
     24 C6          -6.3570    -2.1520    -4.4880 c          1 3L4       0.672000
     25 O6          -7.0730    -3.1310    -4.6170 o          1 3L4      -0.710500
     26 C5          -5.0440    -2.1410    -5.0160 cd         1 3L4       0.109800
     27 N7          -4.2960    -3.0360    -5.7050 nd         1 3L4      -0.650000
     28 C8          -3.1300    -2.5170    -5.9620 cc         1 3L4       0.380400
     29 H3           1.8560     2.3730    -0.3480 h1         1 3L4       0.036700
     30 H4           3.3010     1.4890    -0.8580 h1         1 3L4       0.036700
     31 H5           0.1910     2.8200    -1.9360 h1         1 3L4       0.036700
     32 H6          -0.2400     1.1110    -1.7840 h1         1 3L4       0.036700
     33 H7           0.6180     2.4460    -4.3750 h1         1 3L4       0.027700
     34 H8          -1.0620     2.1370    -3.9160 h1         1 3L4       0.027700
     35 H9           1.3530    -1.0260    -5.2480 h4         1 3L4       0.155000
     36 H10          2.2210     1.8160    -4.5630 ha         1 3L4       0.119000
     37 H13         -1.6820    -0.2230    -3.3840 h1         1 3L4       0.066200
     38 H14         -0.7240    -1.5010    -4.1440 h1         1 3L4       0.066200
     39 H15         -2.2640     0.6700    -5.6160 h1         1 3L4       0.054700
     40 H16         -1.3060    -0.6080    -6.3760 h1         1 3L4       0.054700
     41 H17         -5.8270     1.9010    -3.1580 hn         1 3L4       0.374133
     42 H18         -7.3600     1.3840    -3.3940 hn         1 3L4       0.374133
     43 H19         -7.7220    -1.0360    -3.4550 hn         1 3L4       0.278500
     44 H20         -2.3350    -3.0100    -6.5070 h5         1 3L4       0.059100
     45 H23         -6.5400     0.9290    -2.0550 hn         1 3L4       0.374133
@<TRIPOS>BOND
     1    15    12 1
     2    14    12 1
     3    13    12 1
     4    12    11 1
     5    11    10 2
     6    10     9 1
     7     9     8 1
     8     9    16 1
     9    28    27 2
    10    28    18 1
    11     8     7 1
    12    17    16 1
    13    17    18 1
    14    27    26 1
    15     7     6 1
    16    18    19 1
    17    26    19 2
    18    26    24 1
    19    19    20 1
    20     6     5 1
    21     5     2 1
    22    25    24 2
    23    24    23 1
    24    20    21 2
    25    23    21 1
    26    21    22 1
    27     2     4 1
    28     2     1 1
    29     2     3 1
    30     5    29 1
    31     5    30 1
    32     7    31 1
    33     7    32 1
    34     8    33 1
    35     8    34 1
    36    10    35 1
    37    11    36 1
    38    16    37 1
    39    16    38 1
    40    17    39 1
    41    17    40 1
    42    22    41 1
    43    22    42 1
    44    23    43 1
    45    28    44 1
    46    45    22 1
@<TRIPOS>SUBSTRUCTURE
     1 3L4         1 TEMP              0 ****  ****    0 ROOT
