@<TRIPOS>MOLECULE
molecule
   46    47     1     0     0
SMALL
bcc


@<TRIPOS>ATOM
      1 NAA          0.0000     0.0000     0.0000 nz         1 3L6      -0.811600
      2 CAG          1.4700     0.0000     0.0000 c3         1 3L6       0.085800
      3 CAI          1.9790     0.0000     1.4420 c3         1 3L6      -0.117400
      4 CAJ          3.5090    -0.0000     1.4430 c3         1 3L6       0.175800
      5 NAV          3.9980    -0.0870     2.8260 n3         1 3L6      -0.733600
      6 CAL          5.4190    -0.4630     2.8590 c3         1 3L6       0.182800
      7 CAN          5.5820    -1.8870     2.3250 c3         1 3L6      -0.254600
      8 PAX          7.3440    -2.3540     2.3660 p5         1 3L6       1.029700
      9 OAD          7.5320    -3.8000     1.6830 o          1 3L6      -0.724500
     10 OAF          7.8480    -2.4120     3.8930 o          1 3L6      -0.724500
     11 OAE          8.1370    -1.3500     1.6220 o          1 3L6      -0.724500
     12 CAK          3.7710     1.1730     3.5450 c3         1 3L6       0.132800
     13 CAM          3.8070     0.9130     5.0530 c3         1 3L6       0.044300
     14 N9           3.5510     2.1650     5.7690 na         1 3L6      -0.183900
     15 C4           2.3240     2.6880     6.0710 cc         1 3L6       0.057800
     16 N3           1.0630     2.2980     5.8500 nd         1 3L6      -0.627100
     17 C2           0.0460     3.0200     6.2650 cc         1 3L6       0.270800
     18 N2          -1.2300     2.5800     6.0150 nz         1 3L6      -0.676600
     19 N1           0.2210     4.1930     6.9370 ns         1 3L6      -0.474400
     20 C6           1.4660     4.6510     7.1970 c          1 3L6       0.647000
     21 O6           1.6320     5.7000     7.7960 o          1 3L6      -0.597500
     22 C5           2.5700     3.8840     6.7560 cd         1 3L6       0.223800
     23 N7           3.9140     4.0320     6.8380 nd         1 3L6      -0.620000
     24 C8           4.4950     3.0180     6.2650 cc         1 3L6       0.448400
     25 H1          -0.3340    -0.8070     0.4890 hn         1 3L6       0.448467
     26 H2          -0.3340    -0.0200    -0.9430 hn         1 3L6       0.448467
     27 H4           1.8310    -0.8850    -0.5110 hx         1 3L6       0.116700
     28 H5           1.8310     0.8850    -0.5110 hx         1 3L6       0.116700
     29 H6           1.6180    -0.8840     1.9530 hc         1 3L6       0.061700
     30 H7           1.6180     0.8850     1.9530 hc         1 3L6       0.061700
     31 H8           3.8700    -0.8510     0.8780 h1         1 3L6       0.061200
     32 H9           3.8710     0.9140     0.9890 h1         1 3L6       0.061200
     33 H11          5.9880     0.2210     2.2410 h1         1 3L6       0.060700
     34 H12          5.7810    -0.4170     3.8790 h1         1 3L6       0.060700
     35 H13          5.2200    -1.9340     1.3050 hc         1 3L6       0.039200
     36 H14          5.0130    -2.5720     2.9420 hc         1 3L6       0.039200
     37 H17          4.5460     1.8840     3.2820 h1         1 3L6       0.029700
     38 H18          2.8030     1.5760     3.2710 h1         1 3L6       0.029700
     39 H19          4.7820     0.5310     5.3300 h1         1 3L6       0.089200
     40 H20          3.0470     0.1860     5.3120 h1         1 3L6       0.089200
     41 H21         -1.6180     3.0980     5.2510 hn         1 3L6       0.431467
     42 H22         -1.2070     1.6070     5.7800 hn         1 3L6       0.431467
     43 H23         -0.5760     4.7180     7.2390 hn         1 3L6       0.318500
     44 H24          5.5660     2.8720     6.1940 h5         1 3L6       0.094100
     45 HAA3        -0.3340     0.8260     0.4560 hn         1 3L6       0.448467
     46 H231        -1.7920     2.7030     6.8330 hn         1 3L6       0.431467
@<TRIPOS>BOND
     1    21    20 2
     2    20    19 1
     3    20    22 1
     4    19    17 1
     5    18    17 1
     6    17    16 2
     7    22    23 1
     8    22    15 2
     9    23    24 2
    10    16    15 1
    11    15    14 1
    12    24    14 1
    13    14    13 1
    14    13    12 1
    15    12     5 1
    16     7     8 1
    17     7     6 1
    18     9     8 1
    19     5     6 1
    20     5     4 1
    21    11     8 1
    22     8    10 1
    23     4     3 1
    24     3     2 1
    25     2     1 1
    26     1    25 1
    27     1    26 1
    28     2    27 1
    29     2    28 1
    30     3    29 1
    31     3    30 1
    32     4    31 1
    33     4    32 1
    34     6    33 1
    35     6    34 1
    36     7    35 1
    37     7    36 1
    38    12    37 1
    39    12    38 1
    40    13    39 1
    41    13    40 1
    42    18    41 1
    43    18    42 1
    44    19    43 1
    45    24    44 1
    46    45     1 1
    47    46    18 1
@<TRIPOS>SUBSTRUCTURE
     1 3L6         1 TEMP              0 ****  ****    0 ROOT
