@<TRIPOS>MOLECULE
molecule
   45    46     1     0     0
SMALL
bcc


@<TRIPOS>ATOM
      1 OAD          0.0000     0.0000     0.0000 o          1 3L7      -0.933833
      2 PBA          1.4800     0.0000     0.0000 p5         1 3L7       1.089100
      3 OAE          2.0160     0.0000     1.5190 o          1 3L7      -0.933833
      4 OAB          2.0160    -1.3150    -0.7590 o          1 3L7      -0.933833
      5 CAP          2.0850     1.4810    -0.8550 c2         1 3L7      -0.289600
      6 CAK          2.8420     1.3600    -1.9250 c2         1 3L7      -0.036900
      7 OAU          3.2100     2.4630    -2.6240 os         1 3L7      -0.336900
      8 CAJ          3.9390     2.2510    -3.8340 c3         1 3L7       0.145400
      9 CAL          4.3700     3.6000    -4.4140 c3         1 3L7       0.169800
     10 NAY          5.3200     4.2450    -3.4980 n3         1 3L7      -0.703600
     11 CAN          5.4690     5.6720    -3.8130 c3         1 3L7       0.184800
     12 CAQ          4.2410     6.4360    -3.3150 c3         1 3L7      -0.244600
     13 PBB          4.3630     8.1820    -3.8270 p5         1 3L7       1.068700
     14 OAF          4.4980     8.2560    -5.2990 o          1 3L7      -0.930833
     15 OAG          3.0350     8.9700    -3.3700 o          1 3L7      -0.930833
     16 OAC          5.6510     8.8550    -3.1350 o          1 3L7      -0.930833
     17 CAM          6.6200     3.5620    -3.5190 c3         1 3L7       0.144800
     18 CAO          7.4960     4.0960    -2.3850 c3         1 3L7       0.018300
     19 N9           8.7920     3.4150    -2.4070 na         1 3L7      -0.135900
     20 C4           9.8760     3.7620    -3.1650 cc         1 3L7       0.065800
     21 N3          10.1230     4.7320    -4.0570 nc         1 3L7      -0.573100
     22 C2          11.2810     4.8300    -4.6470 cd         1 3L7       0.459800
     23 N1          12.2950     3.9650    -4.3970 ns         1 3L7      -0.482400
     24 C6          12.1300     2.9560    -3.5110 c          1 3L7       0.628000
     25 O6          13.0360     2.1740    -3.2780 o          1 3L7      -0.673500
     26 C5          10.8780     2.8360    -2.8590 cc         1 3L7       0.192800
     27 N7          10.3680     1.9810    -1.9440 nc         1 3L7      -0.675000
     28 C8           9.1410     2.3220    -1.6700 cd         1 3L7       0.437400
     29 H3           1.7570     2.4620    -0.5330 ha         1 3L7       0.104000
     30 H4           3.1030     0.3750    -2.2940 h4         1 3L7       0.129000
     31 H5           3.3090     1.7360    -4.5490 h1         1 3L7      -0.006300
     32 H6           4.8160     1.6500    -3.6280 h1         1 3L7      -0.006300
     33 H7           4.8440     3.4450    -5.3760 h1         1 3L7       0.036700
     34 H8           3.5000     4.2340    -4.5390 h1         1 3L7       0.036700
     35 H10          6.3560     6.0590    -3.3260 h1         1 3L7       0.030200
     36 H11          5.5630     5.7980    -4.8850 h1         1 3L7       0.030200
     37 H12          3.3460     5.9970    -3.7400 hc         1 3L7       0.039200
     38 H13          4.1930     6.3790    -2.2350 hc         1 3L7       0.039200
     39 H16          7.1080     3.7450    -4.4690 h1         1 3L7       0.021200
     40 H17          6.4700     2.4970    -3.3900 h1         1 3L7       0.021200
     41 H18          7.6450     5.1610    -2.5140 h1         1 3L7       0.103700
     42 H19          7.0080     3.9120    -1.4350 h1         1 3L7       0.103700
     43 H20         11.4390     5.6290    -5.3620 h5         1 3L7       0.052800
     44 H21         13.1700     4.0730    -4.8700 hn         1 3L7       0.313500
     45 H22          8.4960     1.8140    -0.9640 h5         1 3L7       0.091100
@<TRIPOS>BOND
     1    25    24 2   
     2    24    23 1   
     3    24    26 1   
     4    23    22 1   
     5    27    26 1   
     6    27    28 2   
     7    26    20 2   
     8    22    21 2   
     9    28    19 1   
    10    20    21 1   
    11    20    19 1   
    12    19    18 1   
    13    18    17 1   
    14    17    10 1   
    15    14    13 1   
    16    16    13 1   
    17    13    12 1   
    18    13    15 1   
    19    12    11 1   
    20    11    10 1   
    21    10     9 1   
    22     9     8 1   
    23     1     2 1   
    24     8     7 1   
    25     3     2 1   
    26     6     7 1   
    27     6     5 2   
    28     2     5 1   
    29     2     4 1   
    30     5    29 1   
    31     6    30 1   
    32     8    31 1   
    33     8    32 1   
    34     9    33 1   
    35     9    34 1   
    36    11    35 1   
    37    11    36 1   
    38    12    37 1   
    39    12    38 1   
    40    17    39 1   
    41    17    40 1   
    42    18    41 1   
    43    18    42 1   
    44    22    43 1   
    45    23    44 1   
    46    28    45 1   
@<TRIPOS>SUBSTRUCTURE
     1 3L7         1 TEMP              0 ****  ****    0 ROOT
