@<TRIPOS>MOLECULE
3L7
   46    47     1     0     0
SMALL
bcc


@<TRIPOS>ATOM
      1 OAD         1.7830    0.5460   -1.9970 o         1 3L7     -0.886500
      2 PBA         1.3140    1.1970   -0.7430 p5        1 3L7      2.036000
      3 OAE        -0.0730    1.0240   -0.2410 o         1 3L7     -0.886500
      4 OAB         2.3320    0.4890    0.3470 oh        1 3L7     -0.835000
      5 CAP         1.7050    2.8070   -0.6500 c2        1 3L7     -0.933000
      6 CAK         2.7260    3.6170   -0.9220 c2        1 3L7      0.113000
      7 OAU         3.9870    3.4560   -1.4280 os        1 3L7     -0.251000
      8 CAJ         4.2990    2.3370   -2.2650 c3        1 3L7     -0.078000
      9 CAL         4.5430    2.8490   -3.6830 c3        1 3L7     -0.148000
     10 NAY         5.7810    3.7020   -3.8150 n4        1 3L7      0.186000
     11 CAN         5.6140    4.6280   -4.9900 c3        1 3L7     -0.114000
     12 CAQ         4.7440    5.8280   -4.7410 c3        1 3L7     -0.841000
     13 PBB         4.5360    6.6260   -6.2350 p5        1 3L7      1.985000
     14 OAF         6.0840    7.0110   -6.6390 oh        1 3L7     -0.828000
     15 OAG         3.9600    7.9760   -6.0050 o         1 3L7     -0.872000
     16 OAC         4.0060    5.6830   -7.2450 o         1 3L7     -0.872000
     17 CAM         6.9560    2.9090   -3.9240 c2        1 3L7     -0.788000
     18 CAO         7.9070    2.7350   -2.8320 c3        1 3L7      0.137000
     19 N9          9.1130    3.5500   -2.8850 na        1 3L7     -0.183000
     20 C4         10.2470    3.4000   -2.0780 c2        1 3L7      0.060000
     21 N3         10.4840    2.5620   -1.0010 n2        1 3L7     -0.305000
     22 C2         11.6810    2.6680   -0.4370 c1        1 3L7     -0.187000
     23 N1         12.6640    3.5580   -0.8720 n         1 3L7     -0.323000
     24 C6         12.5160    4.4440   -1.9530 c2        1 3L7      0.336000
     25 O6         13.4700    5.2070   -2.2680 o         1 3L7     -0.498000
     26 C5         11.2220    4.3550   -2.5960 c2        1 3L7     -0.315000
     27 N7         10.6850    5.0400   -3.6920 n2        1 3L7     -0.136000
     28 C8          9.4460    4.5350   -3.8420 c2        1 3L7     -0.128000
     29 H3          0.8480    3.3450   -0.1900 ha        1 3L7      0.137000
     30 H4          2.6680    4.7010   -0.6600 h4        1 3L7      0.104000
     31 H5          3.4660    1.5730   -2.2750 h1        1 3L7      0.149500
     32 H6          5.2360    1.8980   -1.8270 h1        1 3L7      0.149500
     33 H7          4.6700    1.9620   -4.3600 hx        1 3L7      0.116500
     34 H8          3.6500    3.4470   -4.0150 hx        1 3L7      0.116500
     35 H10         6.6420    4.9870   -5.2880 hx        1 3L7      0.137500
     36 H11         5.1870    4.0420   -5.8540 hx        1 3L7      0.137500
     37 H12         3.7440    5.5410   -4.3360 hc        1 3L7      0.111500
     38 H13         5.2100    6.5130   -3.9940 hc        1 3L7      0.111500
     39 H16         2.9510   -0.0890   -0.0850 ho        1 3L7      0.218000
     40 H17         7.1200    2.4450   -4.8930 hx        1 3L7      0.135000
     41 H18         8.2630    1.6610   -2.8330 h1        1 3L7      0.063000
     42 H19         7.4380    2.9340   -1.8210 h1        1 3L7      0.063000
     43 H20         6.2410    7.9460   -6.5730 ho        1 3L7      0.221000
     44 H21        13.5250    3.5680   -0.3870 hn        1 3L7      0.195000
     45 H22         8.7270    4.8230   -4.6140 h5        1 3L7      0.185000
     46 HAY1        5.8380    4.2750   -2.9660 hn        1 3L7      0.204000
@<TRIPOS>BOND
     1    1    2 1   
     2    2    3 1   
     3    2    4 1   
     4    2    5 1   
     5    4   39 1   
     6    5    6 1   
     7    5   29 1   
     8    6    7 1   
     9    6   30 1   
    10    7    8 1   
    11    8    9 1   
    12    8   31 1   
    13    8   32 1   
    14    9   10 1   
    15    9   33 1   
    16    9   34 1   
    17   10   11 1   
    18   10   17 1   
    19   10   46 1   
    20   11   12 1   
    21   11   35 1   
    22   11   36 1   
    23   12   13 1   
    24   12   37 1   
    25   12   38 1   
    26   13   14 1   
    27   13   15 1   
    28   13   16 1   
    29   14   43 1   
    30   17   18 1   
    31   17   40 1   
    32   18   19 1   
    33   18   41 1   
    34   18   42 1   
    35   19   20 1   
    36   19   28 1   
    37   20   21 1   
    38   20   26 1   
    39   21   22 1   
    40   22   23 1   
    41   23   24 1   
    42   23   44 1   
    43   24   25 1   
    44   24   26 1   
    45   26   27 1   
    46   27   28 1   
    47   28   45 1   
@<TRIPOS>SUBSTRUCTURE
     1 3L7         1 TEMP              0 ****  ****    0 ROOT
