@<TRIPOS>MOLECULE
3L8
   45    45     1     0     0
SMALL
bcc


@<TRIPOS>ATOM
      1 OAF       -55.4910 -131.3690 -110.0580 o         1 3L8     -0.948500
      2 PBA       -54.6300 -130.5160 -109.1720 p5        1 3L8      1.252700
      3 OAG       -55.0960 -129.0920 -108.9220 o         1 3L8     -0.948500
      4 OAC       -53.1350 -130.5610 -109.4420 o         1 3L8     -0.948500
      5 CAP       -54.8540 -131.2660 -107.5560 c3        1 3L8     -0.059800
      6 OAT       -54.2020 -130.4210 -106.6070 os        1 3L8     -0.421600
      7 CAJ       -55.0660 -129.6900 -105.7600 c3        1 3L8      0.128400
      8 CAK       -54.4040 -128.3350 -105.4550 c3        1 3L8      0.169800
      9 NAX       -54.2080 -127.4500 -106.5840 n3        1 3L8     -0.843200
     10 CAM       -56.3440 -126.2640 -109.2450 c2        1 3L8     -0.245500
     11 CAO       -57.2580 -125.6560 -109.9900 c2        1 3L8     -0.245500
     12 PAZ       618.5360    0.9370    0.4740 p2        1 3L8     -0.001800
     13 OAD       619.7280    0.3380    0.1000 os        1 3L8     -0.436100
     14 OAE       618.6760    0.7640    0.2630 os        1 3L8     -0.126000
     15 OAB       617.2030    0.7090    0.0600 os        1 3L8     -0.436100
     16 CAL       -52.8320 -127.2720 -106.9890 c3        1 3L8      0.181800
     17 CAN       -52.0970 -128.5650 -107.3990 c3        1 3L8     -0.060700
     18 N9        -50.9000 -128.3760 -108.1710 na        1 3L8     -0.118900
     19 C4        -49.7630 -127.6320 -107.8680 cc        1 3L8     -0.007200
     20 N3        -49.4590 -126.8480 -106.7570 nc        1 3L8     -0.556100
     21 C2        -48.2730 -126.2770 -106.8040 cd        1 3L8      0.419800
     22 N1        -47.3280 -126.3830 -107.8230 n         1 3L8     -0.509400
     23 C6        -47.5660 -127.1670 -108.9810 c         1 3L8      0.634000
     24 O6        -46.6610 -127.2030 -109.8400 o         1 3L8     -0.674500
     25 C5        -48.8560 -127.8230 -108.9890 cd        1 3L8      0.201800
     26 N7        -49.4380 -128.6650 -109.9300 nd        1 3L8     -0.676000
     27 C8        -50.6550 -128.9820 -109.4210 cc        1 3L8      0.459400
     28 H3        -55.9340 -131.4000 -107.3340 h1        1 3L8      0.013700
     29 H4        -54.3430 -132.2530 -107.4720 h1        1 3L8      0.013700
     30 H5        -56.0750 -129.5290 -106.2220 h1        1 3L8      0.004200
     31 H6        -55.1960 -130.2600 -104.7970 h1        1 3L8      0.004200
     32 H7        -55.0860 -127.7940 -104.7350 h1        1 3L8      0.006200
     33 H8        -53.4350 -128.5290 -104.9170 h1        1 3L8      0.006200
     34 H10       -56.0710 -127.3430 -109.3350 ha        1 3L8      0.119750
     35 H11       -55.7760 -125.7290 -108.4690 ha        1 3L8      0.119750
     36 H12       -57.5080 -124.5920 -109.8890 ha        1 3L8      0.119750
     37 H13       -57.8270 -126.1820 -110.7670 ha        1 3L8      0.119750
     38 H16       -52.8470 -126.5570 -107.8600 h1        1 3L8      0.026200
     39 H17       -52.2680 -126.7820 -106.1450 h1        1 3L8      0.026200
     40 H18       -51.8330 -129.1500 -106.4740 h1        1 3L8      0.130700
     41 H19       -52.8040 -129.2220 -108.0410 h1        1 3L8      0.130700
     42 H20       -47.9830 -125.6410 -105.9450 h5        1 3L8      0.021800
     43 H21       -46.4680 -125.8970 -107.7480 hn        1 3L8      0.307500
     44 H22       -51.4500 -129.6610 -109.8530 h5        1 3L8      0.193100
     45 HAX1      -54.7530 -127.7780 -107.3830 hn        1 3L8      0.453800
@<TRIPOS>BOND
     1    1    2 1   
     2    2    3 1   
     3    2    4 1   
     4    2    5 1   
     5    5    6 1   
     6    5   28 1   
     7    5   29 1   
     8    6    7 1   
     9    7    8 1   
    10    7   30 1   
    11    7   31 1   
    12    8    9 1   
    13    8   32 1   
    14    8   33 1   
    15    9   16 1   
    16    9   45 1   
    17   10   11 2   
    18   10   34 1   
    19   10   35 1   
    20   11   36 1   
    21   11   37 1   
    22   12   13 1   
    23   12   15 1   
    24   13   14 1   
    25   14   15 1   
    26   16   17 1   
    27   16   38 1   
    28   16   39 1   
    29   17   18 1   
    30   17   40 1   
    31   17   41 1   
    32   18   19 1   
    33   18   27 1   
    34   19   20 1   
    35   19   25 2   
    36   20   21 2   
    37   21   22 1   
    38   21   42 1   
    39   22   23 1   
    40   22   43 1   
    41   23   24 2   
    42   23   25 1   
    43   25   26 1   
    44   26   27 2   
    45   27   44 1   
@<TRIPOS>SUBSTRUCTURE
     1 3L8         1 TEMP              0 ****  ****    0 ROOT
