@<TRIPOS>MOLECULE
molecule
   44    45     1     0     0
SMALL
bcc


@<TRIPOS>ATOM
      1 OAF          0.0000     0.0000     0.0000 o          1 3L8      -0.873500
      2 PBA          1.6090     0.0000     0.0000 p5         1 3L8       1.016700
      3 OAG          2.1020     0.0000     1.3960 o          1 3L8      -0.873500
      4 OAC          2.1470    -1.3140    -0.7590 o          1 3L8      -0.873500
      5 CAP          2.2170     1.4890    -0.8580 c3         1 3L8      -0.036800
      6 OAT          3.6460     1.4900    -0.8580 os         1 3L8      -0.421600
      7 CAJ          4.2280     0.5670    -1.7810 c3         1 3L8       0.119400
      8 CAK          5.7530     0.6530    -1.6950 c3         1 3L8       0.161800
      9 NAX          6.1940     0.2050    -0.3670 n3         1 3L8      -0.690600
     10 CAM          5.9130    -1.2240    -0.1730 c3         1 3L8       0.184800
     11 CAO          6.0060    -1.5650     1.3160 c3         1 3L8      -0.243600
     12 PAZ          5.6800    -3.3420     1.5530 p5         1 3L8       1.068700
     13 OAD          5.6480    -3.6760     3.1280 o          1 3L8      -0.875167
     14 OAE          4.3750    -3.6900     0.9490 o          1 3L8      -0.875167
     15 OAB          6.8450    -4.2000     0.8470 o          1 3L8      -0.875167
     16 CAL          7.6200     0.4940    -0.1610 c3         1 3L8       0.144800
     17 CAN          7.8030     1.9870     0.1150 c3         1 3L8       0.024300
     18 N9           9.2070     2.2560     0.4360 na         1 3L8      -0.150900
     19 C4          10.2130     2.4830    -0.4620 cc         1 3L8       0.051800
     20 N3          10.2780     2.5360    -1.8010 nc         1 3L8      -0.594100
     21 C2          11.4040     2.7790    -2.4130 cd         1 3L8       0.372800
     22 N1          12.5630     2.9880    -1.7400 ns         1 3L8      -0.480400
     23 C6          12.5850     2.9510    -0.3880 c          1 3L8       0.636000
     24 O6          13.6210     3.1380     0.2260 o          1 3L8      -0.702500
     25 C5          11.3710     2.6890     0.2940 cc         1 3L8       0.166800
     26 N7          11.0230     2.5800     1.5970 nc         1 3L8      -0.681000
     27 C8           9.7480     2.3320     1.6850 cd         1 3L8       0.422400
     28 H3           1.8560     2.3730    -0.3460 h1         1 3L8      -0.007800
     29 H4           1.8560     1.4900    -1.8790 h1         1 3L8      -0.007800
     30 H5           3.9090     0.8120    -2.7870 h1         1 3L8       0.049700
     31 H6           3.9090    -0.4390    -1.5360 h1         1 3L8       0.049700
     32 H7           6.0670     1.6780    -1.8530 h1         1 3L8      -0.014300
     33 H8           6.1940     0.0190    -2.4550 h1         1 3L8      -0.014300
     34 H10          4.9160    -1.4480    -0.5330 h1         1 3L8       0.064200
     35 H11          6.6370    -1.8120    -0.7240 h1         1 3L8       0.064200
     36 H12          5.2730    -0.9860     1.8650 hc         1 3L8       0.033200
     37 H13          6.9990    -1.3280     1.6790 hc         1 3L8       0.033200
     38 H16          8.1750     0.2210    -1.0500 h1         1 3L8       0.036700
     39 H17          7.9860    -0.0770     0.6830 h1         1 3L8       0.036700
     40 H18          7.1800     2.2780     0.9520 h1         1 3L8       0.074700
     41 H19          7.5180     2.5550    -0.7620 h1         1 3L8       0.074700
     42 H20         11.4140     2.8150    -3.4960 h5         1 3L8       0.028800
     43 H21         13.4060     3.1720    -2.2460 hn         1 3L8       0.299500
     44 H22          9.2000     2.2040     2.6100 h5         1 3L8       0.076100
@<TRIPOS>BOND
     1    24    23 2
     2    23    25 1
     3    23    22 1
     4    26    25 1
     5    26    27 2
     6    25    19 2
     7    22    21 1
     8    27    18 1
     9    14    12 1
    10    19    18 1
    11    19    20 1
    12    15    12 1
    13    21    20 2
    14    18    17 1
    15    12    11 1
    16    12    13 1
    17    11    10 1
    18    17    16 1
    19    16     9 1
    20    10     9 1
    21     9     8 1
    22     8     7 1
    23     7     6 1
    24     6     5 1
    25     3     2 1
    26     4     2 1
    27     5     2 1
    28     2     1 1
    29     5    28 1
    30     5    29 1
    31     7    30 1
    32     7    31 1
    33     8    32 1
    34     8    33 1
    35    10    34 1
    36    10    35 1
    37    11    36 1
    38    11    37 1
    39    16    38 1
    40    16    39 1
    41    17    40 1
    42    17    41 1
    43    21    42 1
    44    22    43 1
    45    27    44 1
@<TRIPOS>SUBSTRUCTURE
     1 3L8         1 TEMP              0 ****  ****    0 ROOT
