@<TRIPOS>MOLECULE
molecule
   36    35     1     0     0
SMALL
bcc


@<TRIPOS>ATOM
      1 O21          0.0000     0.0000     0.0000 o          1 3LA      -0.834800
      2 O22          1.8790    -0.0000    -1.1630 o          1 3LA      -0.834800
      3 C21          1.2080     0.0000     0.0000 c          1 3LA       0.887600
      4 C22          1.9630     0.0000     1.3040 c3         1 3LA      -0.282400
      5 C23          0.9830     0.0000     2.4510 c          1 3LA       0.545100
      6 C24          1.4860    -0.0000     3.8710 c3         1 3LA      -0.196400
      7 C25          0.2960     0.0000     4.8330 c3         1 3LA      -0.071400
      8 C26          0.8070    -0.0000     6.2750 c3         1 3LA      -0.085400
      9 C27         -0.3830     0.0000     7.2370 c3         1 3LA      -0.081400
     10 C28          0.1280    -0.0000     8.6800 c3         1 3LA      -0.082400
     11 C29         -1.0620     0.0000     9.6420 c3         1 3LA      -0.082400
     12 C30         -0.5510    -0.0000    11.0850 c3         1 3LA      -0.082400
     13 C31         -1.7410     0.0000    12.0470 c3         1 3LA      -0.084400
     14 C32         -1.2310    -0.0000    13.4880 c3         1 3LA      -0.092100
     15 O15         -0.2040     0.0000     2.2300 o          1 3LA      -0.475100
     16 H221         2.5850     0.8850     1.3610 hc         1 3LA       0.048700
     17 H222         2.5850    -0.8850     1.3610 hc         1 3LA       0.048700
     18 H241         2.0880    -0.8850     4.0410 hc         1 3LA       0.046700
     19 H242         2.0880     0.8850     4.0410 hc         1 3LA       0.046700
     20 H251        -0.3060    -0.8850     4.6630 hc         1 3LA       0.052700
     21 H252        -0.3060     0.8850     4.6630 hc         1 3LA       0.052700
     22 H261         1.4090     0.8850     6.4450 hc         1 3LA       0.033700
     23 H262         1.4090    -0.8850     6.4450 hc         1 3LA       0.033700
     24 H271        -0.9850     0.8850     7.0670 hc         1 3LA       0.041700
     25 H272        -0.9850    -0.8850     7.0670 hc         1 3LA       0.041700
     26 H281         0.7300     0.8850     8.8500 hc         1 3LA       0.037700
     27 H282         0.7300    -0.8850     8.8500 hc         1 3LA       0.037700
     28 H291        -1.6640    -0.8850     9.4720 hc         1 3LA       0.040700
     29 H292        -1.6640     0.8850     9.4720 hc         1 3LA       0.040700
     30 H301         0.0500    -0.8850    11.2550 hc         1 3LA       0.039700
     31 H302         0.0500     0.8850    11.2550 hc         1 3LA       0.039700
     32 H311        -2.3430    -0.8850    11.8770 hc         1 3LA       0.039700
     33 H312        -2.3430     0.8850    11.8770 hc         1 3LA       0.039700
     34 H321        -0.6300     0.8850    13.6580 hc         1 3LA       0.029367
     35 H322        -2.0740    -0.0000    14.1690 hc         1 3LA       0.029367
     36 H323        -0.6300    -0.8850    13.6580 hc         1 3LA       0.029367
@<TRIPOS>BOND
     1     1     3 1   
     2     2     3 1   
     3     3     4 1   
     4     4     5 1   
     5     5     6 1   
     6     5    15 2   
     7     6     7 1   
     8     7     8 1   
     9     8     9 1   
    10     9    10 1   
    11    10    11 1   
    12    11    12 1   
    13    12    13 1   
    14    13    14 1   
    15     4    16 1   
    16     4    17 1   
    17     6    18 1   
    18     6    19 1   
    19     7    20 1   
    20     7    21 1   
    21     8    22 1   
    22     8    23 1   
    23     9    24 1   
    24     9    25 1   
    25    10    26 1   
    26    10    27 1   
    27    11    28 1   
    28    11    29 1   
    29    12    30 1   
    30    12    31 1   
    31    13    32 1   
    32    13    33 1   
    33    14    34 1   
    34    14    35 1   
    35    14    36 1   
@<TRIPOS>SUBSTRUCTURE
     1 3LA         1 TEMP              0 ****  ****    0 ROOT
