@<TRIPOS>MOLECULE
molecule
   28    29     1     0     0
SMALL
bcc


@<TRIPOS>ATOM
      1 C4           0.0000     0.0000     0.0000 ca         1 3LD      -0.123000
      2 C5           2.0730     0.0000     1.1980 ca         1 3LD      -0.123000
      3 C6           1.3820     0.0000     0.0000 ca         1 3LD      -0.092300
      4 C7           2.4620     1.5480    -4.2160 cc         1 3LD      -0.357200
      5 C8           3.1450     1.4460    -3.0490 cd         1 3LD       0.142800
      6 C10          4.6360     1.4420    -5.3860 cd         1 3LD       0.510600
      7 C1          -0.0010    -0.0030     2.3940 ca         1 3LD      -0.125000
      8 C2          -0.6910    -0.0020     1.1960 ca         1 3LD      -0.123500
      9 C3           1.3810    -0.0010     2.3940 ca         1 3LD      -0.123500
     10 C9           3.1750     1.5490    -5.4330 c          1 3LD       0.455000
     11 C11          2.1370     0.0010    -1.3040 c3         1 3LD      -0.032100
     12 C12          2.3910     1.4450    -1.7450 c3         1 3LD      -0.051200
     13 N13          5.2290     1.3400    -4.2240 nc         1 3LD      -0.464400
     14 N14          4.4850     1.3440    -3.0410 na         1 3LD      -0.410100
     15 O15          2.5880     1.6360    -6.5010 o          1 3LD      -0.536100
     16 O16          5.3620     1.4380    -6.5330 oh         1 3LD      -0.542600
     17 H1          -0.5420     0.0000    -0.9380 ha         1 3LD       0.130000
     18 H2           3.1560     0.0010     1.1980 ha         1 3LD       0.130000
     19 H4          -0.5430    -0.0040     3.3320 ha         1 3LD       0.132000
     20 H5          -1.7750    -0.0030     1.1960 ha         1 3LD       0.132000
     21 H6           1.9230    -0.0010     3.3330 ha         1 3LD       0.132000
     22 H7           1.5520    -0.5100    -2.0600 hc         1 3LD       0.057200
     23 H8           3.0830    -0.5090    -1.1740 hc         1 3LD       0.057200
     24 H9           1.4450     1.9550    -1.8740 hc         1 3LD       0.067700
     25 H10          2.9760     1.9550    -0.9900 hc         1 3LD       0.067700
     26 H11          4.9630     1.2670    -2.1640 hn         1 3LD       0.483800
     27 H12          6.0200     2.1120    -6.4910 ho         1 3LD       0.433000
     28 H3           1.3820     1.6260    -4.2140 ha         1 3LD       0.171000
@<TRIPOS>BOND
     1    14    13 1   
     2    14     5 1   
     3    12     5 1   
     4    12    11 1   
     5    13     6 2   
     6     5     4 2   
     7    11     3 1   
     8     1     3 ar  
     9     1     8 ar  
    10     6    16 1   
    11     6    10 1   
    12     3     2 ar  
    13     8     7 ar  
    14     4    10 1   
    15    10    15 2   
    16     2     9 ar  
    17     7     9 ar  
    18     1    17 1   
    19     2    18 1   
    20     4    28 1   
    21     7    19 1   
    22     8    20 1   
    23     9    21 1   
    24    11    22 1   
    25    11    23 1   
    26    12    24 1   
    27    12    25 1   
    28    14    26 1   
    29    16    27 1   
@<TRIPOS>SUBSTRUCTURE
     1 3LD         1 TEMP              0 ****  ****    0 ROOT
