@<TRIPOS>MOLECULE
3LD
   28    29     1     0     0
SMALL
bcc


@<TRIPOS>ATOM
      1 C4           0.0000     0.0000     0.0000 ca         1 3LD      -0.095500
      2 C5           2.0730     0.0000     1.1980 ca         1 3LD      -0.095500
      3 C6           1.3820     0.0000     0.0000 ca         1 3LD      -0.100300
      4 C7           2.4620     1.5480    -4.2160 cc         1 3LD      -0.345200
      5 C8           3.1450     1.4460    -3.0490 cd         1 3LD      -0.030200
      6 C10          4.6360     1.4420    -5.3860 cc         1 3LD       0.540600
      7 C1          -0.0010    -0.0030     2.3940 ca         1 3LD      -0.099000
      8 C2          -0.6910    -0.0020     1.1960 ca         1 3LD      -0.096500
      9 C3           1.3810    -0.0010     2.3940 ca         1 3LD      -0.096500
     10 C9           3.1750     1.5490    -5.4330 c          1 3LD       0.496000
     11 C11          2.1370     0.0010    -1.3040 c3         1 3LD       0.034900
     12 C12          2.3910     1.4450    -1.7450 c3         1 3LD       0.022800
     13 N13          5.2290     1.3400    -4.2240 nd         1 3LD      -0.583400
     14 N14          4.4850     1.3440    -3.0410 na         1 3LD       0.054900
     15 O15          2.5880     1.6360    -6.5010 o          1 3LD      -0.574100
     16 O16          5.3620     1.4380    -6.5330 oh         1 3LD      -0.532600
     17 H1          -0.5420     0.0000    -0.9380 ha         1 3LD       0.105000
     18 H2           3.1560     0.0010     1.1980 ha         1 3LD       0.105000
     19 H4          -0.5430    -0.0040     3.3320 ha         1 3LD       0.104000
     20 H5          -1.7750    -0.0030     1.1960 ha         1 3LD       0.104500
     21 H6           1.9230    -0.0010     3.3330 ha         1 3LD       0.104500
     22 H7           1.5520    -0.5100    -2.0600 hc         1 3LD       0.023700
     23 H8           3.0830    -0.5090    -1.1740 hc         1 3LD       0.023700
     24 H9           1.4450     1.9550    -1.8740 hc         1 3LD       0.032200
     25 H10          2.9760     1.9550    -0.9900 hc         1 3LD       0.032200
     26 H11          4.9630     1.2670    -2.1640 hn         1 3LD       0.304800
     27 H12          6.0200     2.1120    -6.4910 ho         1 3LD       0.412000
     28 H3           1.3820     1.6260    -4.2140 ha         1 3LD       0.149000
@<TRIPOS>BOND
     1     1     3 ar  
     2     1     8 ar  
     3     1    17 1   
     4     2     3 ar  
     5     2     9 ar  
     6     2    18 1   
     7     3    11 1   
     8     4     5 2   
     9     4    10 1   
    10     4    28 1   
    11     5    12 1   
    12     5    14 1   
    13     6    10 1   
    14     6    13 2   
    15     6    16 1   
    16     7     8 ar  
    17     7     9 ar  
    18     7    19 1   
    19     8    20 1   
    20     9    21 1   
    21    10    15 2   
    22    11    12 1   
    23    11    22 1   
    24    11    23 1   
    25    12    24 1   
    26    12    25 1   
    27    13    14 1   
    28    14    26 1   
    29    16    27 1   
@<TRIPOS>SUBSTRUCTURE
     1 3LD         1 TEMP              0 ****  ****    0 ROOT
