@<TRIPOS>MOLECULE
molecule
   32    32     1     0     0
SMALL
bcc


@<TRIPOS>ATOM
      1 C            0.0000     0.0000     0.0000 c          1 3LF       0.889600
      2 O            1.3420     0.0000     0.0000 o          1 3LF      -0.852800
      3 C1          -0.7540     0.0000     1.3040 c3         1 3LF      -0.176400
      4 C2          -2.2580     0.0000     1.0250 c3         1 3LF      -0.031100
      5 C3          -3.0120    -0.0010     2.3290 ca         1 3LF       0.017700
      6 C4          -3.3560     1.1980     2.9270 ca         1 3LF      -0.251500
      7 O4          -0.6030     0.0060    -1.0470 o          1 3LF      -0.852800
      8 C5          -4.0500     1.2020     4.1280 ca         1 3LF       0.149600
      9 C6          -3.9970     3.5780     4.0390 c3         1 3LF       0.128200
     10 C7          -4.3990    -0.0020     4.7310 ca         1 3LF       0.016100
     11 C8          -6.5050    -0.0010     5.8360 c3         1 3LF       0.134700
     12 C9          -4.0510    -1.2030     4.1270 ca         1 3LF       0.149600
     13 C10         -3.9980    -3.5800     4.0360 c3         1 3LF       0.128200
     14 C11         -3.3610    -1.1990     2.9230 ca         1 3LF      -0.251500
     15 H1          -0.4920    -0.8850     1.8720 hc         1 3LF       0.033700
     16 H2          -0.4920     0.8840     1.8720 hc         1 3LF       0.033700
     17 H4          -2.5200     0.8850     0.4570 hc         1 3LF       0.057200
     18 H3          -2.5200    -0.8840     0.4560 hc         1 3LF       0.057200
     19 H5          -3.0940     2.1350     2.4510 ha         1 3LF       0.143000
     20 H7          -4.3370     4.4380     4.6030 h1         1 3LF       0.039200
     21 H8          -2.9160     3.5970     3.9670 h1         1 3LF       0.039200
     22 H6          -4.4260     3.6050     3.0450 h1         1 3LF       0.039200
     23 H11         -6.8840     0.9590     6.1650 h1         1 3LF       0.025700
     24 H10         -6.8840    -0.7810     6.4850 h1         1 3LF       0.025700
     25 H9          -6.8300    -0.1890     4.8190 h1         1 3LF       0.025700
     26 H12         -2.9210    -3.5990     3.9290 h1         1 3LF       0.039200
     27 H13         -4.4600    -3.6360     3.0580 h1         1 3LF       0.039200
     28 H14         -4.3170    -4.4250     4.6340 h1         1 3LF       0.039200
     29 H15         -3.1180    -2.1360     2.4360 ha         1 3LF       0.143000
     30 O3          -4.3880    -2.3840     4.7130 os         1 3LF      -0.324900
     31 O1          -4.3880     2.3800     4.7160 os         1 3LF      -0.324900
     32 O2          -5.0780    -0.0020     5.9100 os         1 3LF      -0.325900
@<TRIPOS>BOND
     1     2     1 1
     2     7     1 1
     3     1     3 1
     4     3     4 1
     5    13    30 1
     6     4     5 1
     7    14     5 ar
     8    14    12 ar
     9    30    12 1
    10     5     6 ar
    11    12    10 ar
    12     6     8 ar
    13    10     8 ar
    14    10    32 1
    15     8    31 1
    16    32    11 1
    17    31     9 1
    18     3    15 1
    19     3    16 1
    20     4    17 1
    21     4    18 1
    22     6    19 1
    23     9    20 1
    24     9    21 1
    25     9    22 1
    26    11    23 1
    27    11    24 1
    28    11    25 1
    29    13    26 1
    30    13    27 1
    31    13    28 1
    32    14    29 1
@<TRIPOS>SUBSTRUCTURE
     1 3LF         1 TEMP              0 ****  ****    0 ROOT
