@<TRIPOS>MOLECULE
3LG
   76    80     1     0     0
SMALL
bcc


@<TRIPOS>ATOM
      1 C1           0.0000     0.0000     0.0000 c3         1 3LG       0.233700
      2 O1           1.4200     0.0000     0.0000 os         1 3LG      -0.318900
      3 C2           2.0290     0.0000     1.2760 ca         1 3LG       0.134100
      4 C3           3.1930    -0.7900     1.4980 ca         1 3LG      -0.151300
      5 C4           3.7130    -1.6100     0.3420 c3         1 3LG       0.255700
      6 O2           4.9470    -1.2260    -0.2130 os         1 3LG      -0.395600
      7 C5           1.4880     0.7930     2.3310 ca         1 3LG      -0.160000
      8 C6           2.0980     0.8000     3.6020 ca         1 3LG      -0.069000
      9 C7           3.2530     0.0210     3.8290 ca         1 3LG      -0.142000
     10 C8           3.8010    -0.7720     2.7850 ca         1 3LG      -0.054000
     11 C20         -3.2650     0.3230    -5.8270 c3         1 3LG       0.060700
     12 C21         -4.4560     0.4430    -6.8170 c3         1 3LG       0.153800
     13 N2          -4.0840     0.0100    -8.1530 n7         1 3LG      -0.593200
     14 C22         -2.8990     0.5760    -8.7820 c3         1 3LG       0.084800
     15 C23         -1.6630     0.4870    -7.8560 c          1 3LG       0.636500
     16 N3          -1.8750     0.3680    -6.4830 n          1 3LG      -0.038000
     17 C25         -0.0880     1.4640    -5.2040 ca         1 3LG      -0.051500
     18 C26         -0.7250     0.2850    -5.7010 ca         1 3LG      -0.100400
     19 C27         -0.1620    -0.9850    -5.3830 ca         1 3LG      -0.051500
     20 C28          1.0050    -1.0670    -4.5800 ca         1 3LG      -0.130000
     21 C29          1.6280     0.1230    -4.0840 ca         1 3LG       0.126100
     22 C30          1.0690     1.3790    -4.4060 ca         1 3LG      -0.130000
     23 O7           2.7690     0.1110    -3.2770 os         1 3LG      -0.327900
     24 C31          3.9790    -0.3920    -3.8150 c3         1 3LG       0.224400
     25 C32          4.7390    -1.1460    -2.7080 c3         1 3LG      -0.072400
     26 C33          4.8200    -0.3840    -1.3570 c3         1 3LG       0.195400
     27 N1          -4.2440     4.4590     1.0550 na         1 3LG       0.488600
     28 C9          -4.1710     3.8460    -0.2090 ca         1 3LG      -0.237200
     29 C10         -2.8250     3.3420    -0.3340 ca         1 3LG      -0.057800
     30 C11         -2.1280     3.6860     0.8700 cc         1 3LG      -0.248200
     31 C12         -3.0380     4.3600     1.6710 cd         1 3LG      -0.238100
     32 C13         -5.0570     3.6250    -1.2810 ca         1 3LG      -0.017000
     33 C14         -4.6350     2.9380    -2.4540 ca         1 3LG      -0.199000
     34 C15         -3.2860     2.4480    -2.5510 ca         1 3LG       0.087100
     35 C16         -2.4050     2.6730    -1.4690 ca         1 3LG      -0.120000
     36 C18         -5.8200     6.5530     1.2410 c          1 3LG       0.995600
     37 O3          -7.0680     6.8500     1.6690 o          1 3LG      -0.869300
     38 O4          -5.1530     7.2920     0.5940 o          1 3LG      -0.869300
     39 H11A        -0.3610    -0.7780     0.6620 h1         1 3LG       0.002033
     40 H12A        -0.3610     0.9620     0.3430 h1         1 3LG       0.002033
     41 H13A        -0.3610    -0.1840    -1.0050 h1         1 3LG       0.002033
     42 H41          3.8050    -2.6360     0.6770 h1         1 3LG       0.015200
     43 H42          2.9710    -1.5800    -0.4470 h1         1 3LG       0.015200
     44 H5           0.6020     1.3910     2.1560 ha         1 3LG       0.125000
     45 H6           1.6830     1.4030     4.4010 ha         1 3LG       0.103000
     46 H7           3.7230     0.0260     4.8050 ha         1 3LG       0.100000
     47 H8           4.6870    -1.3670     2.9700 ha         1 3LG       0.103000
     48 H20         -3.3490    -0.6480    -5.3530 h1         1 3LG       0.026700
     49 H211        -5.2730    -0.1740    -6.4620 h1         1 3LG       0.014700
     50 H212        -4.7780     1.4760    -6.8580 h1         1 3LG       0.014700
     51 HN2         -4.8680     0.1110    -8.7670 hn         1 3LG       0.257800
     52 H221        -3.0880     1.6160    -9.0170 h1         1 3LG       0.025200
     53 H222        -2.6930     0.0330    -9.6960 h1         1 3LG       0.025200
     54 H241        -4.5020     1.1300    -4.2620 h1         1 3LG      -0.005800
     55 H242        -3.7330     2.3400    -5.2410 h1         1 3LG      -0.005800
     56 H25         -0.5030     2.4360    -5.4410 ha         1 3LG       0.108000
     57 H27         -0.6270    -1.8900    -5.7540 ha         1 3LG       0.108000
     58 H28          1.4260    -2.0350    -4.3410 ha         1 3LG       0.112000
     59 H30          1.5350     2.2850    -4.0370 ha         1 3LG       0.112000
     60 H311         3.7600    -1.0690    -4.6320 h1         1 3LG      -0.002300
     61 H312         4.5840     0.4300    -4.1770 h1         1 3LG      -0.002300
     62 H321         4.2460    -2.0950    -2.5390 hc         1 3LG       0.017200
     63 H322         5.7470    -1.3380    -3.0540 hc         1 3LG       0.017200
     64 H331         5.6730     0.2820    -1.3890 h1         1 3LG       0.020200
     65 H332         3.9220     0.2120    -1.2450 h1         1 3LG       0.020200
     66 H11         -1.0950     3.4630     1.1070 ha         1 3LG       0.119000
     67 H12         -2.8170     4.7540     2.6560 h4         1 3LG       0.133000
     68 H13         -6.0750     3.9910    -1.2150 ha         1 3LG       0.109000
     69 H14         -5.3100     2.8380    -3.2950 ha         1 3LG       0.101000
     70 H16         -1.3830     2.3170    -1.5310 ha         1 3LG       0.106000
     71 H171        -6.2680     4.4980     1.5590 h1         1 3LG       0.027200
     72 H172        -5.2020     5.1940     2.7560 h1         1 3LG       0.027200
     73 O5          -0.5480     0.5200    -8.3770 o          1 3LG      -0.666500
     74 C24         -3.5560     1.4150    -4.7060 c3         1 3LG       0.185400
     75 O6          -2.7230     1.7570    -3.6280 os         1 3LG      -0.305900
     76 C17         -5.4070     5.1420     1.6930 c3         1 3LG      -0.196700
@<TRIPOS>BOND
     1     1     2 1   
     2     1    39 1   
     3     1    40 1   
     4     1    41 1   
     5     2     3 1   
     6     3     4 ar  
     7     3     7 ar  
     8     4     5 1   
     9     4    10 ar  
    10     5     6 1   
    11     5    42 1   
    12     5    43 1   
    13     6    26 1   
    14     7     8 ar  
    15     7    44 1   
    16     8     9 ar  
    17     8    45 1   
    18     9    10 ar  
    19     9    46 1   
    20    10    47 1   
    21    11    12 1   
    22    11    16 1   
    23    11    48 1   
    24    11    74 1   
    25    12    13 1   
    26    12    49 1   
    27    12    50 1   
    28    13    14 1   
    29    13    51 1   
    30    14    15 1   
    31    14    52 1   
    32    14    53 1   
    33    15    16 1   
    34    15    73 2   
    35    16    18 1   
    36    17    18 ar  
    37    17    22 ar  
    38    17    56 1   
    39    18    19 ar  
    40    19    20 ar  
    41    19    57 1   
    42    20    21 ar  
    43    20    58 1   
    44    21    22 ar  
    45    21    23 1   
    46    22    59 1   
    47    23    24 1   
    48    24    25 1   
    49    24    60 1   
    50    24    61 1   
    51    25    26 1   
    52    25    62 1   
    53    25    63 1   
    54    26    64 1   
    55    26    65 1   
    56    27    28 1   
    57    27    31 1   
    58    27    76 1   
    59    28    29 ar  
    60    28    32 ar  
    61    29    30 1   
    62    29    35 ar  
    63    30    31 2   
    64    30    66 1   
    65    31    67 1   
    66    32    33 ar  
    67    32    68 1   
    68    33    34 ar  
    69    33    69 1   
    70    34    35 ar  
    71    34    75 1   
    72    35    70 1   
    73    36    37 1   
    74    36    38 1   
    75    36    76 1   
    76    54    74 1   
    77    55    74 1   
    78    71    76 1   
    79    72    76 1   
    80    74    75 1   
@<TRIPOS>SUBSTRUCTURE
     1 3LG         1 TEMP              0 ****  ****    0 ROOT
