@<TRIPOS>MOLECULE
3LH
   53    57     1     0     0
SMALL
bcc


@<TRIPOS>ATOM
      1 CAR          0.0000     0.0000     0.0000 c3         1 3LH       0.020900
      2 CAT          1.5300     0.0000     0.0000 c3         1 3LH      -0.097400
      3 CAZ          2.0320     0.0000     1.4210 c          1 3LH       0.558100
      4 OAD          1.2440     0.0010     2.3430 o          1 3LH      -0.620100
      5 NAX          3.3570     0.0000     1.6670 ns         1 3LH      -0.035100
      6 CBE          3.8250     0.1180     2.9800 ca         1 3LH      -0.074400
      7 CAP          3.0380     0.7320     3.9450 ca         1 3LH      -0.097000
      8 CBA          5.0740    -0.3840     3.3220 ca         1 3LH      -0.111300
      9 CAA          5.9300    -1.0500     2.2750 c3         1 3LH       0.048200
     10 CAG          5.5340    -0.2720     4.6200 ca         1 3LH      -0.082000
     11 CAH          4.7540     0.3380     5.5830 ca         1 3LH      -0.095000
     12 CBD          3.5050     0.8460     5.2460 ca         1 3LH      -0.093400
     13 NBL          2.7150     1.4640     6.2230 n          1 3LH       0.239800
     14 CBJ          2.7940     2.8190     6.4040 ca         1 3LH      -0.032400
     15 CBI          3.6590     3.6250     5.6290 ca         1 3LH      -0.152300
     16 CAQ          4.4760     3.0720     4.6370 ca         1 3LH      -0.181000
     17 CBF          1.8770     0.7240     6.9740 c          1 3LH       0.587700
     18 OAE          1.8140    -0.4800     6.7950 o          1 3LH      -0.668500
     19 CAJ          1.0700     1.3230     7.9630 cc         1 3LH      -0.227200
     20 CAL          1.1280     2.6630     8.1720 cd         1 3LH       0.004800
     21 CBG          2.0060     3.4470     7.3810 ca         1 3LH      -0.268100
     22 CAN          2.1010     4.8410     7.5530 ca         1 3LH       0.462200
     23 NAW          2.9100     5.5600     6.8200 nb         1 3LH      -0.597000
     24 CBH          3.6900     5.0210     5.8720 ca         1 3LH       0.393600
     25 CAK          4.5460     5.8300     5.1070 ca         1 3LH      -0.140300
     26 CAI          5.3350     5.2770     4.1460 ca         1 3LH      -0.092000
     27 CBB          5.3080     3.8970     3.9010 ca         1 3LH       0.035000
     28 CBC          6.1780     3.3190     2.8460 cc         1 3LH      -0.260300
     29 CAM          6.9200     4.0170     1.9390 cd         1 3LH      -0.256300
     30 NAV          7.5640     3.1230     1.1630 na         1 3LH       0.455400
     31 NAY          7.2170     1.8370     1.5960 nd         1 3LH      -0.671800
     32 CAO          6.3940     1.9470     2.6050 cc         1 3LH       0.328200
     33 H1          -0.3610    -0.0640    -1.0190 hc         1 3LH       0.011033
     34 H2          -0.3610    -0.8510     0.5650 hc         1 3LH       0.011033
     35 H3          -0.3610     0.9150     0.4540 hc         1 3LH       0.011033
     36 H4           1.8910     0.8850    -0.5110 hc         1 3LH       0.026700
     37 H5           1.8910    -0.8850    -0.5110 hc         1 3LH       0.026700
     38 H6           4.0070    -0.0660     0.9090 hn         1 3LH       0.179500
     39 H7           2.0650     1.1270     3.6800 ha         1 3LH       0.170000
     40 H8           6.9540    -1.1000     2.6240 hc         1 3LH       0.019700
     41 H9           5.8890    -0.4760     1.3570 hc         1 3LH       0.019700
     42 H10          5.5620    -2.0520     2.0910 hc         1 3LH       0.019700
     43 H11          6.5080    -0.6660     4.8830 ha         1 3LH       0.119000
     44 H12          5.1190     0.4250     6.5990 ha         1 3LH       0.120000
     45 H13          4.4560     2.0060     4.4460 ha         1 3LH       0.183000
     46 H14          0.4020     0.7130     8.5570 ha         1 3LH       0.137000
     47 H15          0.5100     3.1280     8.9310 ha         1 3LH       0.109000
     48 H16          1.4920     5.3270     8.3060 h4         1 3LH      -0.019900
     49 H17          4.5790     6.8990     5.2840 ha         1 3LH       0.118000
     50 H18          5.9900     5.9110     3.5620 ha         1 3LH       0.103000
     51 H19          6.9800     5.0950     1.8560 h4         1 3LH       0.149000
     52 H20          8.1820     3.3400     0.4060 hn         1 3LH       0.146700
     53 H21          5.9490     1.1270     3.1550 h4         1 3LH       0.060100
@<TRIPOS>BOND
     1     1     2 1   
     2     1    33 1   
     3     1    34 1   
     4     1    35 1   
     5     2     3 1   
     6     2    36 1   
     7     2    37 1   
     8     3     4 2   
     9     3     5 1   
    10     5     6 1   
    11     5    38 1   
    12     6     7 ar  
    13     6     8 ar  
    14     7    12 ar  
    15     7    39 1   
    16     8     9 1   
    17     8    10 ar  
    18     9    40 1   
    19     9    41 1   
    20     9    42 1   
    21    10    11 ar  
    22    10    43 1   
    23    11    12 ar  
    24    11    44 1   
    25    12    13 1   
    26    13    14 1   
    27    13    17 1   
    28    14    15 ar  
    29    14    21 ar  
    30    15    16 ar  
    31    15    24 ar  
    32    16    27 ar  
    33    16    45 1   
    34    17    18 2   
    35    17    19 1   
    36    19    20 2   
    37    19    46 1   
    38    20    21 1   
    39    20    47 1   
    40    21    22 ar  
    41    22    23 ar  
    42    22    48 1   
    43    23    24 ar  
    44    24    25 ar  
    45    25    26 ar  
    46    25    49 1   
    47    26    27 ar  
    48    26    50 1   
    49    27    28 1   
    50    28    29 2   
    51    28    32 1   
    52    29    30 1   
    53    29    51 1   
    54    30    31 1   
    55    30    52 1   
    56    31    32 2   
    57    32    53 1   
@<TRIPOS>SUBSTRUCTURE
     1 3LH         1 TEMP              0 ****  ****    0 ROOT
