@<TRIPOS>MOLECULE
molecule
   53    57     1     0     0
SMALL
bcc


@<TRIPOS>ATOM
      1 CAR          0.0000     0.0000     0.0000 c3         1 3LH      -0.077100
      2 CAT          1.5300     0.0000     0.0000 c3         1 3LH      -0.159400
      3 CAZ          2.0320     0.0000     1.4210 c          1 3LH       0.656100
      4 OAD          1.2440     0.0010     2.3430 o          1 3LH      -0.583100
      5 NAX          3.3570     0.0000     1.6670 ns         1 3LH      -0.473100
      6 CBE          3.8250     0.1180     2.9800 ca         1 3LH       0.066600
      7 CAP          3.0380     0.7320     3.9450 ca         1 3LH      -0.125000
      8 CBA          5.0740    -0.3840     3.3220 ca         1 3LH      -0.122300
      9 CAA          5.9300    -1.0500     2.2750 c3         1 3LH      -0.050800
     10 CAG          5.5340    -0.2720     4.6200 ca         1 3LH      -0.113000
     11 CAH          4.7540     0.3380     5.5830 ca         1 3LH      -0.134000
     12 CBD          3.5050     0.8460     5.2460 ca         1 3LH       0.050600
     13 NBL          2.7150     1.4640     6.2230 n          1 3LH      -0.229200
     14 CBJ          2.7940     2.8190     6.4040 ca         1 3LH       0.137600
     15 CBI          3.6590     3.6250     5.6290 ca         1 3LH      -0.175300
     16 CAQ          4.4760     3.0720     4.6370 ca         1 3LH      -0.138000
     17 CBF          1.8770     0.7240     6.9740 c          1 3LH       0.694700
     18 OAE          1.8140    -0.4800     6.7950 o          1 3LH      -0.616500
     19 CAJ          1.0700     1.3230     7.9630 cc         1 3LH      -0.247200
     20 CAL          1.1280     2.6630     8.1720 cd         1 3LH      -0.027200
     21 CBG          2.0060     3.4470     7.3810 ca         1 3LH      -0.277100
     22 CAN          2.1010     4.8410     7.5530 ca         1 3LH       0.480200
     23 NAW          2.9100     5.5600     6.8200 nb         1 3LH      -0.707000
     24 CBH          3.6900     5.0210     5.8720 ca         1 3LH       0.442600
     25 CAK          4.5460     5.8300     5.1070 ca         1 3LH      -0.169300
     26 CAI          5.3350     5.2770     4.1460 ca         1 3LH      -0.107000
     27 CBB          5.3080     3.8970     3.9010 ca         1 3LH       0.007000
     28 CBC          6.1780     3.3190     2.8460 cd         1 3LH      -0.261300
     29 CAM          6.9200     4.0170     1.9390 cc         1 3LH      -0.101300
     30 NAV          7.5640     3.1230     1.1630 na         1 3LH      -0.042600
     31 NAY          7.2170     1.8370     1.5960 nc         1 3LH      -0.523800
     32 CAO          6.3940     1.9470     2.6050 cd         1 3LH       0.315200
     33 H1          -0.3610    -0.0640    -1.0190 hc         1 3LH       0.046700
     34 H2          -0.3610    -0.8510     0.5650 hc         1 3LH       0.046700
     35 H3          -0.3610     0.9150     0.4540 hc         1 3LH       0.046700
     36 H4           1.8910     0.8850    -0.5110 hc         1 3LH       0.061200
     37 H5           1.8910    -0.8850    -0.5110 hc         1 3LH       0.061200
     38 H6           4.0070    -0.0660     0.9090 hn         1 3LH       0.331500
     39 H7           2.0650     1.1270     3.6800 ha         1 3LH       0.190000
     40 H8           6.9540    -1.1000     2.6240 hc         1 3LH       0.050700
     41 H9           5.8890    -0.4760     1.3570 hc         1 3LH       0.050700
     42 H10          5.5620    -2.0520     2.0910 hc         1 3LH       0.050700
     43 H11          6.5080    -0.6660     4.8830 ha         1 3LH       0.147000
     44 H12          5.1190     0.4250     6.5990 ha         1 3LH       0.150000
     45 H13          4.4560     2.0060     4.4460 ha         1 3LH       0.178000
     46 H14          0.4020     0.7130     8.5570 ha         1 3LH       0.167000
     47 H15          0.5100     3.1280     8.9310 ha         1 3LH       0.141000
     48 H16          1.4920     5.3270     8.3060 h4         1 3LH       0.028100
     49 H17          4.5790     6.8990     5.2840 ha         1 3LH       0.150000
     50 H18          5.9900     5.9110     3.5620 ha         1 3LH       0.129000
     51 H19          6.9800     5.0950     1.8560 h4         1 3LH       0.173000
     52 H20          8.1820     3.3400     0.4060 hn         1 3LH       0.329700
     53 H21          5.9490     1.1270     3.1550 h4         1 3LH       0.082100
@<TRIPOS>BOND
     1    31    30 1
     2    31    32 2
     3    30    29 1
     4    32    28 1
     5    10    11 ar
     6    10     8 ar
     7     9     8 1
     8    29    28 2
     9    28    27 1
    10    11    12 ar
    11     8     6 ar
    12    26    27 ar
    13    26    25 ar
    14    27    16 ar
    15    25    24 ar
    16    16    15 ar
    17    24    15 ar
    18    24    23 ar
    19    15    14 ar
    20    12    13 1
    21    12     7 ar
    22     6     7 ar
    23     6     5 1
    24    23    22 ar
    25    14    13 1
    26    14    21 ar
    27    13    17 1
    28    22    21 ar
    29    21    20 1
    30     5     3 1
    31    17    18 2
    32    17    19 1
    33    20    19 2
    34     3     2 1
    35     3     4 2
    36     2     1 1
    37     1    33 1
    38     1    34 1
    39     1    35 1
    40     2    36 1
    41     2    37 1
    42     5    38 1
    43     7    39 1
    44     9    40 1
    45     9    41 1
    46     9    42 1
    47    10    43 1
    48    11    44 1
    49    16    45 1
    50    19    46 1
    51    20    47 1
    52    22    48 1
    53    25    49 1
    54    26    50 1
    55    29    51 1
    56    30    52 1
    57    32    53 1
@<TRIPOS>SUBSTRUCTURE
     1 3LH         1 TEMP              0 ****  ****    0 ROOT
