@<TRIPOS>MOLECULE
3LI
   77    81     1     0     0
SMALL
bcc


@<TRIPOS>ATOM
      1 C01          0.0000     0.0000     0.0000 c3         1 3LI       0.086300
      2 N02          1.4650     0.0000     0.0000 ns         1 3LI      -0.191900
      3 C03          2.1390     0.0000     1.1680 c          1 3LI       0.599700
      4 O04          1.5300     0.0000     2.2210 o          1 3LI      -0.663100
      5 C05          3.6130     0.0010     1.1680 ca         1 3LI      -0.159600
      6 C06          4.3160    -0.1230    -0.0320 ca         1 3LI      -0.084000
      7 C07          5.6940    -0.1220    -0.0250 ca         1 3LI      -0.102000
      8 C08          6.3880     0.0020     1.1680 ca         1 3LI      -0.073000
      9 C09          5.7080     0.1250     2.3620 ca         1 3LI      -0.069300
     10 C10          6.4720     0.2580     3.6540 c3         1 3LI       0.016200
     11 C11          4.3190     0.1320     2.3750 ca         1 3LI       0.048600
     12 N12          3.6310     0.2600     3.5760 nu         1 3LI      -0.257300
     13 C13          3.8000     1.3930     4.3510 ca         1 3LI       0.779900
     14 N14          3.0650     1.5650     5.4460 nb         1 3LI      -0.805000
     15 C15          3.2280     2.6540     6.1910 ca         1 3LI       0.783900
     16 N16          4.1240     3.5710     5.8410 nb         1 3LI      -0.742000
     17 C17          4.8590     3.3990     4.7460 ca         1 3LI       0.793900
     18 N18          4.7000     2.3080     4.0040 nb         1 3LI      -0.808000
     19 N19          5.7880     4.3510     4.3820 nh         1 3LI      -0.453300
     20 C20          6.6330     3.8690     3.2800 c3         1 3LI       0.139300
     21 C21          7.6990     4.9200     2.9600 c3         1 3LI       0.145800
     22 N22          7.0450     6.1860     2.6040 nh         1 3LI      -0.401000
     23 C23          6.2000     6.6680     3.7060 c3         1 3LI       0.145800
     24 C24          5.1340     5.6180     4.0260 c3         1 3LI       0.139300
     25 C25          7.9860     7.1510     2.2360 ca         1 3LI       0.010600
     26 C26          8.9640     7.5490     3.1370 ca         1 3LI      -0.124000
     27 C27          9.8950     8.5020     2.7700 ca         1 3LI      -0.093000
     28 C28          9.8530     9.0600     1.5070 ca         1 3LI      -0.091000
     29 C29          8.8800     8.6670     0.6050 ca         1 3LI      -0.100000
     30 C30          7.9500     7.7100     0.9630 ca         1 3LI      -0.014600
     31 Cl31         6.7350     7.2110    -0.1720 cl         1 3LI      -0.007400
     32 N32          2.4660     2.8330     7.3280 nh         1 3LI      -0.398300
     33 C33          3.3230     2.9400     8.5300 c3         1 3LI       0.291900
     34 S34          2.2260     2.3030     9.8640 ss         1 3LI      -0.398200
     35 C35          1.3820     1.0880     8.7670 c3         1 3LI       0.095700
     36 C36          1.4090     1.8290     7.4110 c3         1 3LI      -0.000500
     37 C37          0.0800     2.5080     7.2040 c          1 3LI       0.577100
     38 O38          0.0330     3.7040     7.0070 o          1 3LI      -0.622100
     39 N39         -1.0580     1.7860     7.2360 ns         1 3LI      -0.193900
     40 C40         -2.3500     2.4450     7.0350 c3         1 3LI      -0.010000
     41 C41         -3.4540     1.4230     7.1170 c          1 3LI       0.561100
     42 O42         -3.1880     0.2580     7.3250 o          1 3LI      -0.626100
     43 N43         -4.7380     1.8030     6.9620 ns         1 3LI      -0.045400
     44 O44         -5.7760     0.8430     7.0400 oh         1 3LI      -0.437100
     45 H01         -0.3610     0.8970     0.4890 h1         1 3LI       0.010700
     46 H01A        -0.3610    -0.8720     0.5320 h1         1 3LI       0.010700
     47 H01B        -0.3610    -0.0250    -1.0210 h1         1 3LI       0.010700
     48 HN02         1.9660     0.0090    -0.8670 hn         1 3LI       0.177500
     49 H06          3.7790    -0.2200    -0.9670 ha         1 3LI       0.102000
     50 H07          6.2380    -0.2180    -0.9570 ha         1 3LI       0.106000
     51 H08          7.4720     0.0020     1.1640 ha         1 3LI       0.109000
     52 H10          6.0240    -0.3800     4.4060 hc         1 3LI       0.025033
     53 H10A         7.5020    -0.0380     3.4960 hc         1 3LI       0.025033
     54 H10B         6.4400     1.2880     3.9890 hc         1 3LI       0.025033
     55 HN12         3.0500    -0.4870     3.9030 hn         1 3LI       0.316800
     56 H20          7.1150     2.9450     3.5730 h1         1 3LI       0.036700
     57 H20A         6.0190     3.7010     2.4030 h1         1 3LI       0.036700
     58 H21          8.3020     4.5790     2.1270 h1         1 3LI       0.020950
     59 H21A         8.3280     5.0710     3.8300 h1         1 3LI       0.020950
     60 H23          5.7180     7.5930     3.4130 h1         1 3LI       0.020950
     61 H23A         6.8140     6.8370     4.5830 h1         1 3LI       0.020950
     62 H24          4.5310     5.9580     4.8590 h1         1 3LI       0.036700
     63 H24A         4.5060     5.4660     3.1560 h1         1 3LI       0.036700
     64 H26          8.9980     7.1120     4.1280 ha         1 3LI       0.117000
     65 H27         10.6580     8.8120     3.4730 ha         1 3LI       0.105000
     66 H28         10.5820     9.8090     1.2220 ha         1 3LI       0.106000
     67 H29          8.8510     9.1050    -0.3850 ha         1 3LI       0.115000
     68 H33          4.2030     2.3170     8.4290 h2         1 3LI       0.054700
     69 H33A         3.5930     3.9720     8.7160 h2         1 3LI       0.054700
     70 H35          1.9430     0.1630     8.7120 h1         1 3LI       0.057200
     71 H35A         0.3640     0.9150     9.0930 h1         1 3LI       0.057200
     72 H36          1.5600     1.1020     6.6220 h1         1 3LI       0.104700
     73 HN39        -1.0170     0.7950     7.3670 hn         1 3LI       0.204500
     74 H40         -2.4960     3.1960     7.8020 h1         1 3LI       0.037700
     75 H40A        -2.3670     2.9170     6.0590 h1         1 3LI       0.037700
     76 HN43        -4.9560     2.7610     6.7700 hn         1 3LI       0.158500
     77 HO44        -6.6080     1.2830     7.0930 ho         1 3LI       0.395000
@<TRIPOS>BOND
     1     1     2 1   
     2     1    45 1   
     3     1    46 1   
     4     1    47 1   
     5     2     3 1   
     6     2    48 1   
     7     3     4 2   
     8     3     5 1   
     9     5     6 ar  
    10     5    11 ar  
    11     6     7 ar  
    12     6    49 1   
    13     7     8 ar  
    14     7    50 1   
    15     8     9 ar  
    16     8    51 1   
    17     9    10 1   
    18     9    11 ar  
    19    10    52 1   
    20    10    53 1   
    21    10    54 1   
    22    11    12 1   
    23    12    13 1   
    24    12    55 1   
    25    13    14 ar  
    26    13    18 ar  
    27    14    15 ar  
    28    15    16 ar  
    29    15    32 1   
    30    16    17 ar  
    31    17    18 ar  
    32    17    19 1   
    33    19    20 1   
    34    19    24 1   
    35    20    21 1   
    36    20    56 1   
    37    20    57 1   
    38    21    22 1   
    39    21    58 1   
    40    21    59 1   
    41    22    23 1   
    42    22    25 1   
    43    23    24 1   
    44    23    60 1   
    45    23    61 1   
    46    24    62 1   
    47    24    63 1   
    48    25    26 ar  
    49    25    30 ar  
    50    26    27 ar  
    51    26    64 1   
    52    27    28 ar  
    53    27    65 1   
    54    28    29 ar  
    55    28    66 1   
    56    29    30 ar  
    57    29    67 1   
    58    30    31 1   
    59    32    33 1   
    60    32    36 1   
    61    33    34 1   
    62    33    68 1   
    63    33    69 1   
    64    34    35 1   
    65    35    36 1   
    66    35    70 1   
    67    35    71 1   
    68    36    37 1   
    69    36    72 1   
    70    37    38 2   
    71    37    39 1   
    72    39    40 1   
    73    39    73 1   
    74    40    41 1   
    75    40    74 1   
    76    40    75 1   
    77    41    42 2   
    78    41    43 1   
    79    43    44 1   
    80    43    76 1   
    81    44    77 1   
@<TRIPOS>SUBSTRUCTURE
     1 3LI         1 TEMP              0 ****  ****    0 ROOT
