@<TRIPOS>MOLECULE
3LJ
   29    29     1     0     0
SMALL
bcc


@<TRIPOS>ATOM
      1 O1           0.0000     0.0000     0.0000 oh         1 3LJ      -0.630800
      2 C1           1.4290     0.0000     0.0000 c3         1 3LJ       0.401900
      3 C2           1.9400     0.0000     1.4420 c3         1 3LJ      -0.138500
      4 C3           1.4740     1.2820     2.1410 c3         1 3LJ       0.152100
      5 C4           1.9750     2.4930     1.3470 c3         1 3LJ       0.153100
      6 C5           1.4630     2.3960    -0.0930 c3         1 3LJ       0.143100
      7 C6           2.0080     3.5700    -0.9080 c3         1 3LJ       0.271400
      8 O3           2.0080     1.3260     3.4660 oh         1 3LJ      -0.601800
      9 O4           1.4870     3.6930     1.9480 oh         1 3LJ      -0.557800
     10 O5           1.9060     1.1670    -0.6730 os         1 3LJ      -0.342600
     11 O6           1.4400     3.5450    -2.2190 os         1 3LJ      -0.503500
     12 N            1.4030    -1.1680     2.1540 nz         1 3LJ       0.087400
     13 S            1.9150     4.6750    -3.1220 s6         1 3LJ       1.324300
     14 O7           3.3330     4.3380    -3.5560 o          1 3LJ      -0.671533
     15 O8           2.0090     5.8300    -2.3010 o          1 3LJ      -0.671533
     16 O9           1.1120     4.6160    -4.2930 o          1 3LJ      -0.671533
     17 H1          -0.3140    -0.4890    -0.7420 ho         1 3LJ       0.439000
     18 H2           1.7940    -0.8830    -0.5100 h2         1 3LJ       0.024700
     19 H3           3.0220    -0.0370     1.4410 hx         1 3LJ       0.112700
     20 H4           0.3920     1.2990     2.1800 h1         1 3LJ       0.042700
     21 H5           3.0580     2.4990     1.3440 h1         1 3LJ       0.032700
     22 H6           0.3800     2.4240    -0.0920 h1         1 3LJ       0.046700
     23 H7           3.0860     3.4900    -0.9800 h1         1 3LJ       0.031200
     24 H8           1.7470     4.5010    -0.4190 h1         1 3LJ       0.031200
     25 H9           1.3260     1.5640     4.0720 ho         1 3LJ       0.420000
     26 H10          2.1850     4.1140     2.4230 ho         1 3LJ       0.410000
     27 H11          0.4240    -1.0380     2.3170 hn         1 3LJ       0.220800
     28 H12          1.5430    -1.9890     1.5990 hn         1 3LJ       0.220800
     29 HN3          1.8760    -1.2710     3.0290 hn         1 3LJ       0.220800
@<TRIPOS>BOND
     1     1     2 1   
     2     1    17 1   
     3     2     3 1   
     4     2    10 1   
     5     2    18 1   
     6     3     4 1   
     7     3    12 1   
     8     3    19 1   
     9     4     5 1   
    10     4     8 1   
    11     4    20 1   
    12     5     6 1   
    13     5     9 1   
    14     5    21 1   
    15     6     7 1   
    16     6    10 1   
    17     6    22 1   
    18     7    11 1   
    19     7    23 1   
    20     7    24 1   
    21     8    25 1   
    22     9    26 1   
    23    11    13 1   
    24    12    27 1   
    25    12    28 1   
    26    12    29 1   
    27    13    14 1   
    28    13    15 1   
    29    13    16 1   
@<TRIPOS>SUBSTRUCTURE
     1 3LJ         1 TEMP              0 ****  ****    0 ROOT
