@<TRIPOS>MOLECULE
molecule
   29    29     1     0     0
SMALL
bcc


@<TRIPOS>ATOM
      1 O1           0.0000     0.0000     0.0000 oh         1 3LJ      -0.643800
      2 C1           1.4290     0.0000     0.0000 c3         1 3LJ       0.325900
      3 C2           1.9400     0.0000     1.4420 c3         1 3LJ       0.065500
      4 C3           1.4740     1.2820     2.1410 c3         1 3LJ       0.100100
      5 C4           1.9750     2.4930     1.3470 c3         1 3LJ       0.115100
      6 C5           1.4630     2.3960    -0.0930 c3         1 3LJ       0.124100
      7 C6           2.0080     3.5700    -0.9080 c3         1 3LJ       0.202400
      8 O3           2.0080     1.3260     3.4660 oh         1 3LJ      -0.620800
      9 O4           1.4870     3.6930     1.9480 oh         1 3LJ      -0.574800
     10 O5           1.9060     1.1670    -0.6730 os         1 3LJ      -0.350600
     11 O6           1.4400     3.5450    -2.2190 os         1 3LJ      -0.598500
     12 N            1.4030    -1.1680     2.1540 nz         1 3LJ      -0.804600
     13 S            1.9150     4.6750    -3.1220 s6         1 3LJ       1.552300
     14 O7           3.3330     4.3380    -3.5560 o          1 3LJ      -0.723867
     15 O8           2.0090     5.8300    -2.3010 o          1 3LJ      -0.723867
     16 O9           1.1120     4.6160    -4.2930 o          1 3LJ      -0.723867
     17 H1          -0.3140    -0.4890    -0.7420 ho         1 3LJ       0.449000
     18 H2           1.7940    -0.8830    -0.5100 h2         1 3LJ       0.079700
     19 H3           3.0220    -0.0370     1.4410 hx         1 3LJ       0.137700
     20 H4           0.3920     1.2990     2.1800 h1         1 3LJ       0.079700
     21 H5           3.0580     2.4990     1.3440 h1         1 3LJ       0.068700
     22 H6           0.3800     2.4240    -0.0920 h1         1 3LJ       0.086700
     23 H7           3.0860     3.4900    -0.9800 h1         1 3LJ       0.077200
     24 H8           1.7470     4.5010    -0.4190 h1         1 3LJ       0.077200
     25 H9           1.3260     1.5640     4.0720 ho         1 3LJ       0.432000
     26 H10          2.1850     4.1140     2.4230 ho         1 3LJ       0.426000
     27 H11          0.4240    -1.0380     2.3170 hn         1 3LJ       0.454467
     28 H12          1.5430    -1.9890     1.5990 hn         1 3LJ       0.454467
     29 HN3          1.8760    -1.2710     3.0290 hn         1 3LJ       0.454467
@<TRIPOS>BOND
     1    15    13 1
     2    14    13 1
     3    13    16 1
     4    13    11 1
     5     7    11 1
     6     7     6 1
     7     6    10 1
     8     6     5 1
     9    10     2 1
    10     9     5 1
    11     5     4 1
    12     2     1 1
    13     2     3 1
    14     4     3 1
    15     4     8 1
    16     3    12 1
    17     1    17 1
    18     2    18 1
    19     3    19 1
    20     4    20 1
    21     5    21 1
    22     6    22 1
    23     7    23 1
    24     7    24 1
    25     8    25 1
    26     9    26 1
    27    12    27 1
    28    12    28 1
    29    29    12 1
@<TRIPOS>SUBSTRUCTURE
     1 3LJ         1 TEMP              0 ****  ****    0 ROOT
