@<TRIPOS>MOLECULE
molecule
   53    58     1     0     0
SMALL
bcc


@<TRIPOS>ATOM
      1 C4           0.0000     0.0000     0.0000 ca         1 3LL       0.166100
      2 C14          1.8410     0.8140    -3.6320 ca         1 3LL      -0.017000
      3 C5           1.3880     0.0000     0.0000 ca         1 3LL      -0.167300
      4 C6           2.0790     0.0000     1.1970 ca         1 3LL      -0.067000
      5 C8          -0.1140     0.3920    -2.3160 ca         1 3LL       0.718600
      6 C9           1.2700     0.4110    -2.4400 ca         1 3LL      -0.305600
      7 C10          2.1440     0.0010    -1.2950 c3         1 3LL       0.222800
      8 C12         -0.3830     1.1490    -4.4860 ca         1 3LL       0.523200
      9 C13          0.9960     1.1930    -4.6840 ca         1 3LL      -0.102300
     10 C3          -0.6930    -0.0040     1.2070 ca         1 3LL      -0.123000
     11 C30          4.6530     3.5680    -7.8600 cy         1 3LL       0.141400
     12 O31          5.5340     2.3410    -8.2870 oq         1 3LL      -0.484600
     13 C32          4.1180     1.7120    -9.0090 cy         1 3LL       0.141400
     14 C23          3.5830     3.0360    -8.4350 cy         1 3LL      -0.429900
     15 C33          2.4780     2.6190    -7.4620 c3         1 3LL      -0.046100
     16 C22          1.9660     1.9700    -6.9740 c1         1 3LL       0.030900
     17 C16          1.5400     1.6190    -5.9380 cg         1 3LL      -0.400000
     18 N11         -0.8840     0.7590    -3.3340 nb         1 3LL      -0.690000
     19 O7          -0.6970    -0.0010    -1.1610 os         1 3LL      -0.316400
     20 C17          2.7550    -1.3910    -1.5580 c3         1 3LL       0.117400
     21 O18          4.0360    -1.0330    -2.1200 os         1 3LL      -0.421400
     22 C19          4.3460     0.2040    -1.6830 c2         1 3LL       0.575500
     23 N20          3.3320     0.8610    -1.2060 n2         1 3LL      -0.522900
     24 N21          5.6170     0.7210    -1.7370 nz         1 3LL      -0.763600
     25 C2          -0.0080    -0.0050     2.4030 ca         1 3LL      -0.065000
     26 C1           1.3860    -0.0000     2.4040 cp         1 3LL      -0.041000
     27 C15          2.1290    -0.0020     3.6880 cp         1 3LL      -0.210300
     28 C28          1.8150     0.9200     4.6910 ca         1 3LL      -0.054000
     29 C27          2.5380     0.8780     5.8720 ca         1 3LL      -0.259300
     30 C26          3.5380    -0.0650     6.0200 ca         1 3LL       0.468200
     31 N25          3.8130    -0.9230     5.0570 nb         1 3LL      -0.715000
     32 C24          3.1490    -0.9270     3.9170 ca         1 3LL       0.645500
     33 F29          3.4660    -1.8250     2.9590 f          1 3LL      -0.228200
     34 H1           2.9180     0.8850    -3.7200 ha         1 3LL       0.125000
     35 H2           3.1620     0.0400     1.1970 ha         1 3LL       0.133000
     36 H3          -1.0540     1.4370    -5.2860 h4         1 3LL       0.056100
     37 H4          -1.7710    -0.0190     1.3140 ha         1 3LL       0.172000
     38 H7           4.0640     1.8610   -10.0800 h1         1 3LL       0.060200
     39 H8           3.8320     0.7340    -8.6400 h1         1 3LL       0.060200
     40 H9           2.8160     1.7740    -6.8730 hc         1 3LL       0.230700
     41 H10          2.2440     3.4470    -6.8040 hc         1 3LL       0.230700
     42 H11          1.5920     2.3390    -8.0190 hc         1 3LL       0.230700
     43 H12          2.3110    -1.8340    -2.4410 h1         1 3LL       0.117200
     44 H13          2.6140    -2.0320    -0.6960 h1         1 3LL       0.117200
     45 H14          5.5840     1.6510    -2.1060 hn         1 3LL       0.500800
     46 H15          6.1860     0.1480    -2.3290 hn         1 3LL       0.500800
     47 H16         -0.5540    -0.0290     3.3380 ha         1 3LL       0.163000
     48 H17          1.1230     1.7280     4.4870 ha         1 3LL       0.155000
     49 H18          2.2930     1.5540     6.6810 ha         1 3LL       0.159000
     50 H19          4.1100    -0.1070     6.9390 h4         1 3LL       0.044100
     51 H5           4.7300     3.7850    -6.8010 h1         1 3LL       0.060200
     52 H213         6.2250     0.1730    -1.1620 hn         1 3LL       0.500800
     53 H6           4.8100     4.4320    -8.4940 h1         1 3LL       0.060200
@<TRIPOS>BOND
     1    31    30 ar
     2    31    32 ar
     3    30    29 ar
     4    33    32 1
     5    32    27 ar
     6    29    28 ar
     7    27    28 ar
     8    27    26 1
     9    24    22 1
    10    26     4 ar
    11    26    25 ar
    12    22    23 2
    13    22    21 1
    14     4     3 ar
    15    23     7 1
    16    25    10 ar
    17    21    20 1
    18     3     7 1
    19     3     1 ar
    20    10     1 ar
    21     7    20 1
    22     7     6 1
    23     1    19 1
    24     6     2 ar
    25     6     5 ar
    26    19     5 1
    27     2     9 ar
    28     5    18 ar
    29     9     8 ar
    30     9    17 1
    31    18     8 ar
    32    17    16 3
    33    15    14 1
    34    16    14 1
    35    14    11 1
    36    14    13 1
    37    11    12 1
    38    13    12 1
    39     2    34 1
    40     4    35 1
    41     8    36 1
    42    10    37 1
    43    11    51 1
    44    11    53 1
    45    13    38 1
    46    13    39 1
    47    15    40 1
    48    15    41 1
    49    15    42 1
    50    20    43 1
    51    20    44 1
    52    24    45 1
    53    24    46 1
    54    25    47 1
    55    28    48 1
    56    29    49 1
    57    30    50 1
    58    52    24 1
@<TRIPOS>SUBSTRUCTURE
     1 3LL         1 TEMP              0 ****  ****    0 ROOT
