@<TRIPOS>MOLECULE
3LL
   53    60     1     0     0
SMALL
bcc


@<TRIPOS>ATOM
      1 C4           0.0000     0.0000     0.0000 ca         1 3LL       0.131000
      2 C14          1.8410     0.8140    -3.6320 c2         1 3LL      -0.016000
      3 C5           1.3880     0.0000     0.0000 ca         1 3LL      -0.191000
      4 C6           2.0790     0.0000     1.1970 ca         1 3LL      -0.042000
      5 C8          -0.1140     0.3920    -2.3160 c2         1 3LL       0.164000
      6 C9           1.2700     0.4110    -2.4400 c2         1 3LL      -0.247000
      7 C10          2.1440     0.0010    -1.2950 c3         1 3LL       0.098000
      8 C12         -0.3830     1.1490    -4.4860 c2         1 3LL       0.021000
      9 C13          0.9960     1.1930    -4.6840 c2         1 3LL       0.027000
     10 C3          -0.6930    -0.0040     1.2070 ca         1 3LL      -0.105000
     11 C30          4.6530     3.5680    -7.8600 cy         1 3LL       0.075000
     12 O31          5.5340     2.3410    -8.2870 oq         1 3LL      -0.339000
     13 C32          4.1180     1.7120    -9.0090 cy         1 3LL       0.075000
     14 C23          3.5830     3.0360    -8.4350 cv         1 3LL      -0.385000
     15 C33          2.4780     2.6190    -7.4620 DU         1 3LL      -0.144000
     16 C22          1.9660     1.9700    -6.9740 c3         1 3LL       0.044000
     17 C16          1.5400     1.6190    -5.9380 c1         1 3LL      -0.469000
     18 N11         -0.8840     0.7590    -3.3340 n2         1 3LL      -0.041000
     19 O7          -0.6970    -0.0010    -1.1610 os         1 3LL      -0.078000
     20 C17          2.7550    -1.3910    -1.5580 c3         1 3LL       0.039000
     21 O18          4.0360    -1.0330    -2.1200 os         1 3LL      -0.178000
     22 C19          4.3460     0.2040    -1.6830 c2         1 3LL      -0.236000
     23 N20          3.3320     0.8610    -1.2060 n2         1 3LL      -0.019000
     24 N21          5.6170     0.7210    -1.7370 nz         1 3LL       0.921000
     25 C2          -0.0080    -0.0050     2.4030 ca         1 3LL      -0.032000
     26 C1           1.3860    -0.0000     2.4040 ca         1 3LL      -0.038000
     27 C15          2.1290    -0.0020     3.6880 c2         1 3LL      -0.125000
     28 C28          1.8150     0.9200     4.6910 c2         1 3LL      -0.032000
     29 C27          2.5380     0.8780     5.8720 c2         1 3LL      -0.153000
     30 C26          3.5380    -0.0650     6.0200 c2         1 3LL      -0.023000
     31 N25          3.8130    -0.9230     5.0570 n2         1 3LL      -0.055000
     32 C24          3.1490    -0.9270     3.9170 c2         1 3LL       0.093000
     33 F29          3.4660    -1.8250     2.9590 f          1 3LL      -0.091000
     34 H1           2.9180     0.8850    -3.7200 ha         1 3LL       0.091000
     35 H2           3.1620     0.0400     1.1970 ha         1 3LL       0.100000
     36 H3          -1.0540     1.4370    -5.2860 h4         1 3LL       0.137000
     37 H4          -1.7710    -0.0190     1.3140 ha         1 3LL       0.137000
     38 H7           4.0640     1.8610   -10.0800 h1         1 3LL       0.069250
     39 H8           3.8320     0.7340    -8.6400 h1         1 3LL       0.069250
     40 H9           2.8160     1.7740    -6.8730 DU         1 3LL       0.307000
     41 H10          2.2440     3.4470    -6.8040 ha         1 3LL       0.134000
     42 H11          1.5920     2.3390    -8.0190 DU         1 3LL       0.307000
     43 H12          2.3110    -1.8340    -2.4410 h1         1 3LL       0.109000
     44 H13          2.6140    -2.0320    -0.6960 h1         1 3LL       0.109000
     45 H14          5.5840     1.6510    -2.1060 hn         1 3LL       0.045333
     46 H15          6.1860     0.1480    -2.3290 hn         1 3LL       0.045333
     47 H16         -0.5540    -0.0290     3.3380 ha         1 3LL       0.126000
     48 H17          1.1230     1.7280     4.4870 ha         1 3LL       0.122000
     49 H18          2.2930     1.5540     6.6810 ha         1 3LL       0.129000
     50 H19          4.1100    -0.1070     6.9390 h4         1 3LL       0.131000
     51 H5           4.7300     3.7850    -6.8010 h1         1 3LL       0.069250
     52 H213         6.2250     0.1730    -1.1620 hn         1 3LL       0.045333
     53 H6           4.8100     4.4320    -8.4940 h1         1 3LL       0.069250
@<TRIPOS>BOND
     1     1     3 1   
     2     1    10 1   
     3     1    19 1   
     4     2     6 1   
     5     2     9 1   
     6     2    34 1   
     7     3     4 1   
     8     3     7 1   
     9     4    26 1   
    10     4    35 1   
    11     5     6 1   
    12     5    18 1   
    13     5    19 1   
    14     6     7 1   
    15     7    20 1   
    16     7    23 1   
    17     8     9 1   
    18     8    18 1   
    19     8    36 1   
    20     9    17 1   
    21    10    25 1   
    22    10    37 1   
    23    11    12 1   
    24    11    14 1   
    25    11    51 1   
    26    11    53 1   
    27    12    13 1   
    28    13    14 1   
    29    13    38 1   
    30    13    39 1   
    31    14    15 1   
    32    15    16 1   
    33    15    40 1   
    34    15    41 1   
    35    15    42 1   
    36    16    17 1   
    37    16    40 1   
    38    16    42 1   
    39    20    21 1   
    40    20    43 1   
    41    20    44 1   
    42    21    22 1   
    43    22    23 1   
    44    22    24 1   
    45    24    45 1   
    46    24    46 1   
    47    24    52 1   
    48    25    26 1   
    49    25    47 1   
    50    26    27 1   
    51    27    28 1   
    52    27    32 1   
    53    28    29 1   
    54    28    48 1   
    55    29    30 1   
    56    29    49 1   
    57    30    31 1   
    58    30    50 1   
    59    31    32 1   
    60    32    33 1   
@<TRIPOS>SUBSTRUCTURE
     1 3LL         1 TEMP              0 ****  ****    0 ROOT
