@<TRIPOS>MOLECULE
molecule
   40    40     1     0     0
SMALL
bcc


@<TRIPOS>ATOM
      1 C            0.0000     0.0000     0.0000 c          1 3LM       0.821800
      2 N           -0.9980     1.2080     1.9350 nu         1 3LM      -0.713000
      3 O1           1.2160     0.0000     0.0000 o          1 3LM      -0.821300
      4 N1          -1.6840     5.6870     3.8740 nb         1 3LM      -0.713000
      5 C2          -0.5170     5.1080     4.0710 ca         1 3LM       0.334600
      6 C3          -0.1070     4.0530     3.2680 ca         1 3LM      -0.023200
      7 O3           1.0980     3.4580     3.4740 oh         1 3LM      -0.517100
      8 C4          -0.9460     3.6140     2.2480 ca         1 3LM      -0.122300
      9 C5          -2.1640     4.2520     2.0780 ca         1 3LM      -0.134600
     10 C6          -2.5020     5.2950     2.9180 ca         1 3LM       0.430200
     11 CA          -0.7370     0.0000     1.2780 ce         1 3LM       0.315800
     12 CB          -1.1550    -1.1520     1.8080 c2         1 3LM      -0.636200
     13 SD           0.2960    -3.3980     2.2950 ss         1 3LM      -0.407200
     14 CE           0.6480    -4.9130     1.3620 c3         1 3LM      -0.021000
     15 CG          -0.7700    -2.4600     1.1660 c3         1 3LM       0.143900
     16 C4A         -0.5390     2.4720     1.3530 c3         1 3LM       0.263100
     17 C5A         -3.1080     3.8130     0.9880 c3         1 3LM       0.243700
     18 OP1         -5.0080     4.5120    -1.3930 o          1 3LM      -0.907500
     19 OP2         -6.5990     5.5940     0.2390 o          1 3LM      -0.907500
     20 OP3         -6.1940     2.9960     0.2380 o          1 3LM      -0.907500
     21 OP4         -4.2840     4.6230     1.0220 os         1 3LM      -0.587200
     22 O2          -0.6740     0.0050    -1.1670 o          1 3LM      -0.821300
     23 HN          -1.4770     1.2070     2.8140 hn         1 3LM       0.449800
     24 HO3          1.7800     3.9910     3.1000 ho         1 3LM       0.397000
     25 H6          -3.4530     5.7980     2.7890 h4         1 3LM       0.078100
     26 HB          -1.6960    -1.5570     0.9610 ha         1 3LM       0.213000
     27 HE           1.2350    -5.5860     1.9750 h1         1 3LM       0.031033
     28 HEA         -0.2840    -5.3930     1.0890 h1         1 3LM       0.031033
     29 HEB          1.2020    -4.6640     0.4650 h1         1 3LM       0.031033
     30 HG          -1.6640    -3.0340     0.9530 h1         1 3LM       0.028700
     31 HGA         -0.2370    -2.2670     0.2430 h1         1 3LM       0.028700
     32 H2A         -0.1420     6.3370     5.7690 hc         1 3LM       0.029033
     33 H2A1         1.2740     6.0380     4.7510 hc         1 3LM       0.029033
     34 H2A2         0.6600     4.7610     5.8110 hc         1 3LM       0.029033
     35 H4A          0.5390     2.4550     1.2570 h1         1 3LM       0.075700
     36 H4A1        -0.9870     2.6030     0.3750 h1         1 3LM       0.075700
     37 H5A         -2.6220     3.9210     0.0260 h1         1 3LM       0.053200
     38 H5A1        -3.3790     2.7760     1.1420 h1         1 3LM       0.053200
     39 C2A          0.3820     5.5950     5.1780 c3         1 3LM      -0.123400
     40 P           -5.5100     4.4340    -0.0040 p5         1 3LM       1.177900
@<TRIPOS>BOND
     1     1     3 1
     2     1    11 1
     3     1    22 1
     4     2    11 1
     5     2    16 1
     6    40    18 1
     7    40    19 1
     8    40    20 1
     9    40    21 1
    10     4     5 ar
    11     4    10 ar
    12     5     6 ar
    13     5    39 1
    14     6     7 1
    15     6     8 ar
    16     8     9 ar
    17     8    16 1
    18     9    10 ar
    19     9    17 1
    20    11    12 2
    21    12    15 1
    22    13    14 1
    23    13    15 1
    24    17    21 1
    25     2    23 1
    26     7    24 1
    27    10    25 1
    28    12    26 1
    29    14    27 1
    30    14    28 1
    31    14    29 1
    32    15    30 1
    33    15    31 1
    34    39    32 1
    35    39    33 1
    36    39    34 1
    37    16    35 1
    38    16    36 1
    39    17    37 1
    40    17    38 1
@<TRIPOS>SUBSTRUCTURE
     1 3LM         1 TEMP              0 ****  ****    0 ROOT
