@<TRIPOS>MOLECULE
3LM
   40    40     1     0     0
SMALL
bcc


@<TRIPOS>ATOM
      1 C            0.0000     0.0000     0.0000 c          1 3LM       0.972800
      2 N           -0.9980     1.2080     1.9350 nu         1 3LM      -0.381000
      3 O1           1.2160     0.0000     0.0000 o          1 3LM      -0.885800
      4 N1          -1.6840     5.6870     3.8740 nb         1 3LM      -0.608000
      5 C2          -0.5170     5.1080     4.0710 ca         1 3LM       0.253600
      6 C3          -0.1070     4.0530     3.2680 ca         1 3LM      -0.004200
      7 O3           1.0980     3.4580     3.4740 oh         1 3LM      -0.494100
      8 C4          -0.9460     3.6140     2.2480 ca         1 3LM      -0.137300
      9 C5          -2.1640     4.2520     2.0780 ca         1 3LM      -0.123600
     10 C6          -2.5020     5.2950     2.9180 ca         1 3LM       0.391200
     11 CA          -0.7370     0.0000     1.2780 ce         1 3LM       0.054800
     12 CB          -1.1550    -1.1520     1.8080 c2         1 3LM      -0.388200
     13 SD           0.2960    -3.3980     2.2950 ss         1 3LM      -0.495200
     14 CE           0.6480    -4.9130     1.3620 c3         1 3LM       0.093000
     15 CG          -0.7700    -2.4600     1.1660 c3         1 3LM       0.224900
     16 C4A         -0.5390     2.4720     1.3530 c3         1 3LM       0.211100
     17 C5A         -3.1080     3.8130     0.9880 c3         1 3LM       0.310700
     18 OP1         -5.0080     4.5120    -1.3930 o          1 3LM      -0.753500
     19 OP2         -6.5990     5.5940     0.2390 o          1 3LM      -0.753500
     20 OP3         -6.1940     2.9960     0.2380 o          1 3LM      -0.753500
     21 OP4         -4.2840     4.6230     1.0220 os         1 3LM      -0.484200
     22 O2          -0.6740     0.0050    -1.1670 o          1 3LM      -0.885800
     23 HN          -1.4770     1.2070     2.8130 hn         1 3LM       0.275800
     24 HO3          1.7800     3.9910     3.1000 ho         1 3LM       0.380000
     25 H6          -3.4530     5.7980     2.7890 h4         1 3LM       0.035100
     26 HB          -1.6960    -1.1510     2.7460 ha         1 3LM       0.101000
     27 HE          -0.2830    -5.3590     1.0330 h1         1 3LM       0.012367
     28 HEA          1.2580    -4.6730     0.4990 h1         1 3LM       0.012367
     29 HEB          1.1790    -5.6120     1.9960 h1         1 3LM       0.012367
     30 HG          -0.2370    -2.2670     0.2430 h1         1 3LM       0.038200
     31 HGA         -1.6640    -3.0340     0.9530 h1         1 3LM       0.038200
     32 H2A          0.6580     4.7610     5.8120 hc         1 3LM      -0.010300
     33 H2A1        -0.1420     6.3390     5.7670 hc         1 3LM      -0.010300
     34 H2A2         1.2750     6.0360     4.7510 hc         1 3LM      -0.010300
     35 H4A         -0.9870     2.6030     0.3750 h1         1 3LM       0.042200
     36 H4A1         0.5390     2.4550     1.2570 h1         1 3LM       0.042200
     37 H5A         -2.6220     3.9210     0.0260 h1         1 3LM       0.011700
     38 H5A1        -3.3790     2.7760     1.1420 h1         1 3LM       0.011700
     39 C2A          0.3820     5.5950     5.1780 c3         1 3LM      -0.017400
     40 P           -5.5100     4.4340    -0.0040 p5         1 3LM       0.668900
@<TRIPOS>BOND
     1     1     3 1   
     2     1    11 1   
     3     1    22 1   
     4     2    11 1   
     5     2    16 1   
     6     2    23 1   
     7     4     5 ar  
     8     4    10 ar  
     9     5     6 ar  
    10     5    39 1   
    11     6     7 1   
    12     6     8 ar  
    13     7    24 1   
    14     8     9 ar  
    15     8    16 1   
    16     9    10 ar  
    17     9    17 1   
    18    10    25 1   
    19    11    12 2   
    20    12    15 1   
    21    12    26 1   
    22    13    14 1   
    23    13    15 1   
    24    14    27 1   
    25    14    28 1   
    26    14    29 1   
    27    15    30 1   
    28    15    31 1   
    29    16    35 1   
    30    16    36 1   
    31    17    21 1   
    32    17    37 1   
    33    17    38 1   
    34    18    40 1   
    35    19    40 1   
    36    20    40 1   
    37    21    40 1   
    38    32    39 1   
    39    33    39 1   
    40    34    39 1   
@<TRIPOS>SUBSTRUCTURE
     1 3LM         1 TEMP              0 ****  ****    0 ROOT
