@<TRIPOS>MOLECULE
3LN
   56    60     1     0     0
SMALL
bcc


@<TRIPOS>ATOM
      1 C4           0.0000     0.0000     0.0000 ca         1 3LN       0.174100
      2 C14          1.8550     0.8080    -3.6350 ca         1 3LN      -0.119000
      3 C5           1.3890     0.0000     0.0000 ca         1 3LN      -0.194300
      4 C6           2.0780     0.0000     1.1970 ca         1 3LN      -0.059000
      5 C11         -0.9020     0.7700    -3.3920 ca         1 3LN      -0.061000
      6 C8          -0.1060     0.3880    -2.3190 ca         1 3LN       0.126100
      7 C9           1.2750     0.4090    -2.4430 ca         1 3LN      -0.161300
      8 C10          2.1470     0.0000    -1.2940 c3         1 3LN       0.231800
      9 C12         -0.3220     1.1670    -4.5810 ca         1 3LN      -0.147000
     10 C13          1.0580     1.1870    -4.7040 ca         1 3LN       0.151100
     11 C3          -0.6940    -0.0040     1.2060 ca         1 3LN      -0.107000
     12 C25          3.5230    -0.0110     3.7110 ca         1 3LN       0.444200
     13 N26          4.1450    -0.0110     4.8780 nb         1 3LN      -0.613000
     14 C27          3.4660    -0.0060     6.0080 ca         1 3LN       0.642900
     15 N28          2.1470    -0.0010     6.0320 nb         1 3LN      -0.613000
     16 C29          1.4470     0.0000     4.9100 ca         1 3LN       0.444200
     17 C15          2.1260    -0.0000     3.6890 cp         1 3LN      -0.284600
     18 C1           1.3840     0.0000     2.4040 cp         1 3LN      -0.035000
     19 C2          -0.0100    -0.0030     2.4010 ca         1 3LN      -0.036000
     20 O7          -0.6950    -0.0010    -1.1630 os         1 3LN      -0.183200
     21 O16          1.6310     1.5790    -5.8740 os         1 3LN      -0.304900
     22 C22          0.7500     1.9560    -6.9340 c3         1 3LN       0.206400
     23 C23          1.5710     2.3630    -8.1590 c3         1 3LN      -0.078000
     24 C30          2.4730     3.5450    -7.8000 c3         1 3LN       0.010567
     25 C31          2.4340     1.1820    -8.6100 c3         1 3LN       0.010567
     26 C24          0.6280     2.7670    -9.2930 c3         1 3LN       0.010567
     27 C17          2.7590    -1.3920    -1.5540 c3         1 3LN       0.201400
     28 O18          4.0400    -1.0340    -2.1150 os         1 3LN      -0.385400
     29 C19          4.3490     0.2040    -1.6800 c2         1 3LN       0.326500
     30 N21          5.6190     0.7230    -1.7340 nz         1 3LN       0.238400
     31 N20          3.3340     0.8620    -1.2050 n2         1 3LN      -0.429900
     32 H1           2.9330     0.8230    -3.7320 ha         1 3LN       0.095000
     33 H2           3.1610     0.0040     1.1960 ha         1 3LN       0.097000
     34 H3          -1.9810     0.7550    -3.2960 ha         1 3LN       0.130000
     35 H4          -0.9460     1.4630    -5.4160 ha         1 3LN       0.138000
     36 H5          -1.7770    -0.0060     1.2040 ha         1 3LN       0.133000
     37 H8           0.3640     0.0070     4.9380 h4         1 3LN      -0.017400
     38 H9          -0.5550    -0.0030     3.3380 ha         1 3LN       0.126000
     39 H10          0.1390     2.7920    -6.6150 h1         1 3LN       0.010200
     40 H11          0.1120     1.1180    -7.1890 h1         1 3LN       0.010200
     41 H12          3.2460     3.2150    -7.1150 hc         1 3LN       0.009144
     42 H13          1.8810     4.3210    -7.3290 hc         1 3LN       0.009144
     43 H14          2.9310     3.9370    -8.7000 hc         1 3LN       0.009144
     44 H15          1.8140     0.3010    -8.7140 hc         1 3LN       0.009144
     45 H16          2.8940     1.4140    -9.5620 hc         1 3LN       0.009144
     46 H17          3.2050     0.9960    -7.8720 hc         1 3LN       0.009144
     47 H18          0.0180     3.6040    -8.9750 hc         1 3LN       0.009144
     48 H19          1.2090     3.0550   -10.1610 hc         1 3LN       0.009144
     49 H20         -0.0110     1.9300    -9.5480 hc         1 3LN       0.009144
     50 H21          2.8810    -1.9400    -0.6280 h1         1 3LN       0.062700
     51 H22          2.1650    -1.9480    -2.2700 h1         1 3LN       0.062700
     52 H23          5.5880     1.7020    -1.5270 hn         1 3LN       0.223800
     53 H24          5.9960     0.5880    -2.6520 hn         1 3LN       0.223800
     54 H6           4.0880    -0.0140     2.7870 h4         1 3LN      -0.017400
     55 H213         6.2000     0.2540    -1.0690 hn         1 3LN       0.223800
     56 H7           4.0070    -0.0060     6.9460 h5         1 3LN       0.010100
@<TRIPOS>BOND
     1     1     3 ar  
     2     1    11 ar  
     3     1    20 1   
     4     2     7 ar  
     5     2    10 ar  
     6     2    32 1   
     7     3     4 ar  
     8     3     8 1   
     9     4    18 ar  
    10     4    33 1   
    11     5     6 ar  
    12     5     9 ar  
    13     5    34 1   
    14     6     7 ar  
    15     6    20 1   
    16     7     8 1   
    17     8    27 1   
    18     8    31 1   
    19     9    10 ar  
    20     9    35 1   
    21    10    21 1   
    22    11    19 ar  
    23    11    36 1   
    24    12    13 ar  
    25    12    17 ar  
    26    12    54 1   
    27    13    14 ar  
    28    14    15 ar  
    29    14    56 1   
    30    15    16 ar  
    31    16    17 ar  
    32    16    37 1   
    33    17    18 1   
    34    18    19 ar  
    35    19    38 1   
    36    21    22 1   
    37    22    23 1   
    38    22    39 1   
    39    22    40 1   
    40    23    24 1   
    41    23    25 1   
    42    23    26 1   
    43    24    41 1   
    44    24    42 1   
    45    24    43 1   
    46    25    44 1   
    47    25    45 1   
    48    25    46 1   
    49    26    47 1   
    50    26    48 1   
    51    26    49 1   
    52    27    28 1   
    53    27    50 1   
    54    27    51 1   
    55    28    29 1   
    56    29    30 1   
    57    29    31 2   
    58    30    52 1   
    59    30    53 1   
    60    30    55 1   
@<TRIPOS>SUBSTRUCTURE
     1 3LN         1 TEMP              0 ****  ****    0 ROOT
