@<TRIPOS>MOLECULE
molecule
   56    60     1     0     0
SMALL
bcc


@<TRIPOS>ATOM
      1 C4           0.0000     0.0000     0.0000 ca         1 3LN       0.168100
      2 C14          1.8550     0.8080    -3.6350 ca         1 3LN      -0.133000
      3 C5           1.3890     0.0000     0.0000 ca         1 3LN      -0.167300
      4 C6           2.0780     0.0000     1.1970 ca         1 3LN      -0.080000
      5 C11         -0.9020     0.7700    -3.3920 ca         1 3LN      -0.087000
      6 C8          -0.1060     0.3880    -2.3190 ca         1 3LN       0.121100
      7 C9           1.2750     0.4090    -2.4430 ca         1 3LN      -0.138300
      8 C10          2.1470     0.0000    -1.2940 c3         1 3LN       0.222800
      9 C12         -0.3220     1.1670    -4.5810 ca         1 3LN      -0.165000
     10 C13          1.0580     1.1870    -4.7040 ca         1 3LN       0.143100
     11 C3          -0.6940    -0.0040     1.2060 ca         1 3LN      -0.127000
     12 C25          3.5230    -0.0110     3.7110 ca         1 3LN       0.466700
     13 N26          4.1450    -0.0110     4.8780 nb         1 3LN      -0.723500
     14 C27          3.4660    -0.0060     6.0080 ca         1 3LN       0.693900
     15 N28          2.1470    -0.0010     6.0320 nb         1 3LN      -0.723500
     16 C29          1.4470     0.0000     4.9100 ca         1 3LN       0.466700
     17 C15          2.1260    -0.0000     3.6890 cp         1 3LN      -0.297600
     18 C1           1.3840     0.0000     2.4040 cp         1 3LN      -0.041000
     19 C2          -0.0100    -0.0030     2.4010 ca         1 3LN      -0.066000
     20 O7          -0.6950    -0.0010    -1.1630 os         1 3LN      -0.217200
     21 O16          1.6310     1.5790    -5.8740 os         1 3LN      -0.327900
     22 C22          0.7500     1.9560    -6.9340 c3         1 3LN       0.142400
     23 C23          1.5710     2.3630    -8.1590 c3         1 3LN      -0.067000
     24 C30          2.4730     3.5450    -7.8000 c3         1 3LN      -0.081767
     25 C31          2.4340     1.1820    -8.6100 c3         1 3LN      -0.081767
     26 C24          0.6280     2.7670    -9.2930 c3         1 3LN      -0.081767
     27 C17          2.7590    -1.3920    -1.5540 c3         1 3LN       0.125400
     28 O18          4.0400    -1.0340    -2.1150 os         1 3LN      -0.415400
     29 C19          4.3490     0.2040    -1.6800 c2         1 3LN       0.575500
     30 N21          5.6190     0.7230    -1.7340 nz         1 3LN      -0.716600
     31 N20          3.3340     0.8620    -1.2050 n2         1 3LN      -0.533900
     32 H1           2.9330     0.8230    -3.7320 ha         1 3LN       0.123000
     33 H2           3.1610     0.0040     1.1960 ha         1 3LN       0.121000
     34 H3          -1.9810     0.7550    -3.2960 ha         1 3LN       0.166000
     35 H4          -0.9460     1.4630    -5.4160 ha         1 3LN       0.162000
     36 H5          -1.7770    -0.0060     1.2040 ha         1 3LN       0.167000
     37 H8           0.3640     0.0070     4.9380 h4         1 3LN       0.024600
     38 H9          -0.5550    -0.0030     3.3380 ha         1 3LN       0.156000
     39 H10          0.1390     2.7920    -6.6150 h1         1 3LN       0.042700
     40 H11          0.1120     1.1180    -7.1890 h1         1 3LN       0.042700
     41 H12          3.2460     3.2150    -7.1150 hc         1 3LN       0.041256
     42 H13          1.8810     4.3210    -7.3290 hc         1 3LN       0.041256
     43 H14          2.9310     3.9370    -8.7000 hc         1 3LN       0.041256
     44 H15          1.8140     0.3010    -8.7140 hc         1 3LN       0.041256
     45 H16          2.8940     1.4140    -9.5620 hc         1 3LN       0.041256
     46 H17          3.2050     0.9960    -7.8720 hc         1 3LN       0.041256
     47 H18          0.0180     3.6040    -8.9750 hc         1 3LN       0.041256
     48 H19          1.2090     3.0550   -10.1610 hc         1 3LN       0.041256
     49 H20         -0.0110     1.9300    -9.5480 hc         1 3LN       0.041256
     50 H21          2.8810    -1.9400    -0.6280 h1         1 3LN       0.110700
     51 H22          2.1650    -1.9480    -2.2700 h1         1 3LN       0.110700
     52 H23          5.5880     1.7020    -1.5270 hn         1 3LN       0.484467
     53 H24          5.9960     0.5880    -2.6520 hn         1 3LN       0.484467
     54 H6           4.0880    -0.0140     2.7870 h4         1 3LN       0.024600
     55 H213         6.2000     0.2540    -1.0690 hn         1 3LN       0.484467
     56 H7           4.0070    -0.0060     6.9460 h5         1 3LN       0.073100
@<TRIPOS>BOND
     1    15    14 ar  
     2    15    16 ar  
     3    14    13 ar  
     4    16    17 ar  
     5    13    12 ar  
     6    17    12 ar  
     7    17    18 1   
     8    30    29 1   
     9    18     4 ar  
    10    18    19 ar  
    11    29    31 2   
    12    29    28 1   
    13     4     3 ar  
    14    31     8 1   
    15    19    11 ar  
    16    28    27 1   
    17     3     8 1   
    18     3     1 ar  
    19    11     1 ar  
    20     8    27 1   
    21     8     7 1   
    22     1    20 1   
    23     7     2 ar  
    24     7     6 ar  
    25    20     6 1   
    26     2    10 ar  
    27     6     5 ar  
    28    10    21 1   
    29    10     9 ar  
    30     5     9 ar  
    31    24    23 1   
    32    21    22 1   
    33    22    23 1   
    34    23    25 1   
    35    23    26 1   
    36     2    32 1   
    37     4    33 1   
    38     5    34 1   
    39     9    35 1   
    40    11    36 1   
    41    12    54 1   
    42    14    56 1   
    43    16    37 1   
    44    19    38 1   
    45    22    39 1   
    46    22    40 1   
    47    24    41 1   
    48    24    42 1   
    49    24    43 1   
    50    25    44 1   
    51    25    45 1   
    52    25    46 1   
    53    26    47 1   
    54    26    48 1   
    55    26    49 1   
    56    27    50 1   
    57    27    51 1   
    58    30    52 1   
    59    30    53 1   
    60    55    30 1   
@<TRIPOS>SUBSTRUCTURE
     1 3LN         1 TEMP              0 ****  ****    0 ROOT
