@<TRIPOS>MOLECULE
molecule
   53    58     1     0     0
SMALL
bcc


@<TRIPOS>ATOM
      1 C4           0.0000     0.0000     0.0000 ca         1 3LO       0.164100
      2 C14          2.1270    -0.0010     3.6890 cp         1 3LO      -0.205300
      3 C5           1.3890     0.0000     0.0000 ca         1 3LO      -0.170300
      4 C6           2.0790     0.0000     1.1960 ca         1 3LO      -0.066000
      5 C11         -0.3350     1.1770    -4.5790 ca         1 3LO      -0.109000
      6 C7          -0.1070     0.3900    -2.3170 ca         1 3LO       0.120100
      7 C8           1.2750     0.4110    -2.4430 ca         1 3LO      -0.151300
      8 C9           2.1460     0.0010    -1.2930 c3         1 3LO       0.223800
      9 C10         -0.9090     0.7760    -3.3910 ca         1 3LO       0.142900
     10 C12          1.0540     1.1990    -4.7060 ca         1 3LO      -0.033800
     11 C13          1.8540     0.8130    -3.6310 ca         1 3LO      -0.101000
     12 N1           3.3350     0.8620    -1.2050 n2         1 3LO      -0.537900
     13 C3          -0.6930    -0.0050     1.2060 ca         1 3LO      -0.129000
     14 N3           3.8120    -0.9220     5.0590 nb         1 3LO      -0.715000
     15 C22          1.4590     0.7950    -7.2090 c3         1 3LO      -0.071200
     16 C23          1.8220     1.6120    -8.4520 c3         1 3LO       0.136400
     17 O3           3.0970     2.2280    -8.2340 os         1 3LO      -0.412600
     18 C24          3.0640     3.2470    -7.2330 c3         1 3LO       0.170600
     19 C25          2.4020     2.7270    -5.9890 c2         1 3LO      -0.192200
     20 C15          1.6770     1.6280    -5.9760 ce         1 3LO      -0.075400
     21 F1          -2.2540     0.7560    -3.2670 f          1 3LO      -0.106900
     22 O1          -0.6950    -0.0020    -1.1620 os         1 3LO      -0.206200
     23 C16          2.7570    -1.3910    -1.5570 c3         1 3LO       0.124400
     24 O2           4.0380    -1.0340    -2.1190 os         1 3LO      -0.414400
     25 C17          4.3490     0.2030    -1.6810 c2         1 3LO       0.579500
     26 C2          -0.0090    -0.0040     2.4020 ca         1 3LO      -0.059000
     27 C1           1.3860    -0.0000     2.4040 cp         1 3LO      -0.047000
     28 C21          1.8130     0.9200     4.6910 ca         1 3LO      -0.054000
     29 C20          2.5350     0.8790     5.8720 ca         1 3LO      -0.260300
     30 C19          3.5350    -0.0630     6.0220 ca         1 3LO       0.465200
     31 C18          3.1480    -0.9250     3.9190 ca         1 3LO       0.643500
     32 F2           3.4670    -1.8240     2.9610 f          1 3LO      -0.227200
     33 H1           3.1620     0.0160     1.1950 ha         1 3LO       0.128000
     34 H2          -0.9610     1.4760    -5.4110 ha         1 3LO       0.174000
     35 H3           2.9330     0.8290    -3.7270 ha         1 3LO       0.120000
     36 H5           6.1840     0.2950    -1.0260 hn         1 3LO       0.485133
     37 H6          -1.7770    -0.0080     1.2050 ha         1 3LO       0.169000
     38 H7           2.0880    -0.0860    -7.1630 hc         1 3LO       0.064700
     39 H8           0.4190     0.5000    -7.2640 hc         1 3LO       0.064700
     40 H9           1.0720     2.3770    -8.6150 h1         1 3LO       0.060700
     41 H10          1.8760     0.9580    -9.3140 h1         1 3LO       0.060700
     42 H11          4.0770     3.5510    -6.9990 h1         1 3LO       0.063200
     43 H12          2.5060     4.0970    -7.6070 h1         1 3LO       0.063200
     44 H13          2.5250     3.2800    -5.0650 ha         1 3LO       0.125000
     45 H14          2.1620    -1.9450    -2.2730 h1         1 3LO       0.113200
     46 H15          2.8800    -1.9410    -0.6320 h1         1 3LO       0.113200
     47 H16         -0.5520    -0.0770     3.3360 ha         1 3LO       0.160000
     48 H17          1.0240     1.6490     4.5480 ha         1 3LO       0.154000
     49 H18          2.3180     1.5780     6.6700 ha         1 3LO       0.158000
     50 H19          4.1020    -0.0960     6.9440 h4         1 3LO       0.043100
     51 H4           6.0180     0.5350    -2.6340 hn         1 3LO       0.485133
     52 N2           5.6200     0.7210    -1.7350 nz         1 3LO      -0.717600
     53 H23          5.5840     1.7100    -1.5830 hn         1 3LO       0.485133
@<TRIPOS>BOND
     1    14    30 ar  
     2    14    31 ar  
     3    30    29 ar  
     4    32    31 1   
     5    31     2 ar  
     6    29    28 ar  
     7     2    28 ar  
     8     2    27 1   
     9    52    25 1   
    10    27     4 ar  
    11    27    26 ar  
    12    25    12 2   
    13    25    24 1   
    14     4     3 ar  
    15    12     8 1   
    16    26    13 ar  
    17    24    23 1   
    18     3     8 1   
    19     3     1 ar  
    20    13     1 ar  
    21     8    23 1   
    22     8     7 1   
    23     1    22 1   
    24     7    11 ar  
    25     7     6 ar  
    26    22     6 1   
    27    11    10 ar  
    28     6     9 ar  
    29    10    20 1   
    30    10     5 ar  
    31     9     5 ar  
    32     9    21 1   
    33    15    16 1   
    34    15    20 1   
    35    16    17 1   
    36    20    19 2   
    37    19    18 1   
    38    17    18 1   
    39     4    33 1   
    40     5    34 1   
    41    11    35 1   
    42    52    36 1   
    43    13    37 1   
    44    15    38 1   
    45    15    39 1   
    46    16    40 1   
    47    16    41 1   
    48    18    42 1   
    49    18    43 1   
    50    19    44 1   
    51    23    45 1   
    52    23    46 1   
    53    26    47 1   
    54    28    48 1   
    55    29    49 1   
    56    30    50 1   
    57    52    51 1   
    58    53    52 1   
@<TRIPOS>SUBSTRUCTURE
     1 3LO         1 TEMP              0 ****  ****    0 ROOT
