@<TRIPOS>MOLECULE
3LO
   53    58     1     0     0
SMALL
bcc


@<TRIPOS>ATOM
      1 C4           0.0000     0.0000     0.0000 ca         1 3LO       0.170100
      2 C14          2.1270    -0.0010     3.6890 cp         1 3LO      -0.186300
      3 C5           1.3890     0.0000     0.0000 ca         1 3LO      -0.197300
      4 C6           2.0790     0.0000     1.1960 ca         1 3LO      -0.042000
      5 C11         -0.3350     1.1770    -4.5790 ca         1 3LO      -0.070000
      6 C7          -0.1070     0.3900    -2.3170 ca         1 3LO       0.138100
      7 C8           1.2750     0.4110    -2.4430 ca         1 3LO      -0.177300
      8 C9           2.1460     0.0010    -1.2930 c3         1 3LO       0.233800
      9 C10         -0.9090     0.7760    -3.3910 ca         1 3LO       0.110900
     10 C12          1.0540     1.1990    -4.7060 ca         1 3LO      -0.027800
     11 C13          1.8540     0.8130    -3.6310 ca         1 3LO      -0.076000
     12 N1           3.3350     0.8620    -1.2050 n2         1 3LO      -0.436900
     13 C3          -0.6930    -0.0050     1.2060 ca         1 3LO      -0.107000
     14 N3           3.8120    -0.9220     5.0590 nb         1 3LO      -0.581000
     15 C22          1.4590     0.7950    -7.2090 c3         1 3LO      -0.003200
     16 C23          1.8220     1.6120    -8.4520 c3         1 3LO       0.213400
     17 O3           3.0970     2.2280    -8.2340 os         1 3LO      -0.403600
     18 C24          3.0640     3.2470    -7.2330 c3         1 3LO       0.262600
     19 C25          2.4020     2.7270    -5.9890 c2         1 3LO      -0.183200
     20 C15          1.6770     1.6280    -5.9760 ce         1 3LO      -0.078400
     21 F1          -2.2540     0.7560    -3.2670 f          1 3LO      -0.102900
     22 O1          -0.6950    -0.0020    -1.1620 os         1 3LO      -0.172200
     23 C16          2.7570    -1.3910    -1.5570 c3         1 3LO       0.200400
     24 O2           4.0380    -1.0340    -2.1190 os         1 3LO      -0.383400
     25 C17          4.3490     0.2030    -1.6810 c2         1 3LO       0.331500
     26 C2          -0.0090    -0.0040     2.4020 ca         1 3LO      -0.025000
     27 C1           1.3860    -0.0000     2.4040 cp         1 3LO      -0.041000
     28 C21          1.8130     0.9200     4.6910 ca         1 3LO      -0.032000
     29 C20          2.5350     0.8790     5.8720 ca         1 3LO      -0.220300
     30 C19          3.5350    -0.0630     6.0220 ca         1 3LO       0.441200
     31 C18          3.1480    -0.9250     3.9190 ca         1 3LO       0.560500
     32 F2           3.4670    -1.8240     2.9610 f          1 3LO      -0.231200
     33 H1           3.1620     0.0160     1.1950 ha         1 3LO       0.099000
     34 H2          -0.9610     1.4760    -5.4110 ha         1 3LO       0.140000
     35 H3           2.9330     0.8290    -3.7270 ha         1 3LO       0.092000
     36 H5           6.1840     0.2950    -1.0260 hn         1 3LO       0.224467
     37 H6          -1.7770    -0.0080     1.2050 ha         1 3LO       0.135000
     38 H7           2.0880    -0.0860    -7.1630 hc         1 3LO       0.031700
     39 H8           0.4190     0.5000    -7.2640 hc         1 3LO       0.031700
     40 H9           1.0720     2.3770    -8.6150 h1         1 3LO       0.018700
     41 H10          1.8760     0.9580    -9.3140 h1         1 3LO       0.018700
     42 H11          4.0770     3.5510    -6.9990 h1         1 3LO       0.019200
     43 H12          2.5060     4.0970    -7.6070 h1         1 3LO       0.019200
     44 H13          2.5250     3.2800    -5.0650 ha         1 3LO       0.102000
     45 H14          2.1620    -1.9450    -2.2730 h1         1 3LO       0.065700
     46 H15          2.8800    -1.9410    -0.6320 h1         1 3LO       0.065700
     47 H16         -0.5520    -0.0770     3.3360 ha         1 3LO       0.124000
     48 H17          1.0240     1.6490     4.5480 ha         1 3LO       0.122000
     49 H18          2.3180     1.5780     6.6700 ha         1 3LO       0.128000
     50 H19          4.1020    -0.0960     6.9440 h4         1 3LO      -0.005900
     51 H4           6.0180     0.5350    -2.6340 hn         1 3LO       0.224467
     52 N2           5.6200     0.7210    -1.7350 nz         1 3LO       0.236400
     53 H23          5.5840     1.7100    -1.5830 hn         1 3LO       0.224467
@<TRIPOS>BOND
     1     1     3 ar  
     2     1    13 ar  
     3     1    22 1   
     4     2    27 1   
     5     2    28 ar  
     6     2    31 ar  
     7     3     4 ar  
     8     3     8 1   
     9     4    27 ar  
    10     4    33 1   
    11     5     9 ar  
    12     5    10 ar  
    13     5    34 1   
    14     6     7 ar  
    15     6     9 ar  
    16     6    22 1   
    17     7     8 1   
    18     7    11 ar  
    19     8    12 1   
    20     8    23 1   
    21     9    21 1   
    22    10    11 ar  
    23    10    20 1   
    24    11    35 1   
    25    12    25 2   
    26    13    26 ar  
    27    13    37 1   
    28    14    30 ar  
    29    14    31 ar  
    30    15    16 1   
    31    15    20 1   
    32    15    38 1   
    33    15    39 1   
    34    16    17 1   
    35    16    40 1   
    36    16    41 1   
    37    17    18 1   
    38    18    19 1   
    39    18    42 1   
    40    18    43 1   
    41    19    20 2   
    42    19    44 1   
    43    23    24 1   
    44    23    45 1   
    45    23    46 1   
    46    24    25 1   
    47    25    52 1   
    48    26    27 ar  
    49    26    47 1   
    50    28    29 ar  
    51    28    48 1   
    52    29    30 ar  
    53    29    49 1   
    54    30    50 1   
    55    31    32 1   
    56    36    52 1   
    57    51    52 1   
    58    52    53 1   
@<TRIPOS>SUBSTRUCTURE
     1 3LO         1 TEMP              0 ****  ****    0 ROOT
