@<TRIPOS>MOLECULE
molecule
   57    60     1     0     0
SMALL
bcc


@<TRIPOS>ATOM
      1 OAB          0.0000     0.0000     0.0000 oh         1 3LP      -0.587800
      2 CAW          1.4290     0.0000     0.0000 c3         1 3LP       0.128100
      3 CAO          1.9020     0.0000     1.4590 c3         1 3LP       0.149800
      4 NAQ          1.4720     1.1930     2.1740 n7         1 3LP      -0.809200
      5 CAX          1.9710     1.1870     3.5480 c3         1 3LP       0.174500
      6 CAN          1.5500     2.4770     4.2610 c3         1 3LP      -0.073900
      7 CAJ          1.9880     2.4720     5.7240 c3         1 3LP      -0.076400
      8 CAF          1.4780     1.2370     6.4610 c3         1 3LP      -0.077400
      9 CAI          1.8850    -0.0510     5.7500 c3         1 3LP      -0.076400
     10 CAM          1.4460    -0.0490     4.2870 c3         1 3LP      -0.073900
     11 CAP          1.9090    -1.2350    -0.7730 c3         1 3LP       0.026300
     12 NAY          3.3540    -1.3340    -0.8090 na         1 3LP      -0.059400
     13 CAV          4.1240    -1.9920     0.1270 ca         1 3LP      -0.048200
     14 CAD          3.7410    -2.6930     1.2760 ca         1 3LP      -0.144000
     15 CAC          4.7500    -3.2660     2.0530 ca         1 3LP      -0.112000
     16 CAR          6.0910    -3.1420     1.6940 ca         1 3LP      -0.111300
     17 CAA          7.1460    -3.7660     2.5470 c3         1 3LP      -0.041800
     18 CAE          6.4620    -2.4400     0.5430 ca         1 3LP      -0.085000
     19 CAU          5.4620    -1.8520    -0.2590 ca         1 3LP      -0.075800
     20 CAS          5.4700    -1.0890    -1.4610 cc         1 3LP      -0.147400
     21 CAT          4.1590    -0.7850    -1.7630 cd         1 3LP      -0.061300
     22 CAK          6.6110    -0.6230    -2.3000 c3         1 3LP       0.000800
     23 CAG          6.1260    -0.1520    -3.6850 c3         1 3LP      -0.076400
     24 CAH          4.8650     0.7270    -3.5910 c3         1 3LP      -0.070400
     25 CAL          3.6830    -0.0180    -2.9450 c3         1 3LP      -0.014200
     26 HAA1         6.6940    -4.5040     3.1990 hc         1 3LP       0.040033
     27 HAA2         7.8840    -4.2460     1.9160 hc         1 3LP       0.040033
     28 HAA3         7.6250    -3.0010     3.1460 hc         1 3LP       0.040033
     29 HAC          4.4870    -3.8160     2.9480 ha         1 3LP       0.129000
     30 HAD          2.6980    -2.7880     1.5530 ha         1 3LP       0.134000
     31 HAE          7.5070    -2.3470     0.2700 ha         1 3LP       0.132000
     32 HAK1         7.1060     0.2000    -1.7990 hc         1 3LP       0.046200
     33 HAK2         7.3110    -1.4400    -2.4300 hc         1 3LP       0.046200
     34 HAG1         5.9030    -1.0210    -4.2920 hc         1 3LP       0.042700
     35 HAG2         6.9170     0.4200    -4.1560 hc         1 3LP       0.042700
     36 HAH1         4.5790     1.0370    -4.5900 hc         1 3LP       0.043200
     37 HAH2         5.0920     1.6040    -2.9980 hc         1 3LP       0.043200
     38 HAL1         2.9360     0.7000    -2.6290 hc         1 3LP       0.049200
     39 HAL2         3.2520    -0.7010    -3.6660 hc         1 3LP       0.049200
     40 HAP1         1.5360    -1.1800    -1.7880 h1         1 3LP       0.068200
     41 HAP2         1.5090    -2.1230    -0.2980 h1         1 3LP       0.068200
     42 HAW          1.7890     0.8950    -0.4940 h1         1 3LP       0.033700
     43 HAB         -0.3140     0.6590    -0.5970 ho         1 3LP       0.402000
     44 HAO1         1.5000    -0.8730     1.9580 h1         1 3LP       0.049200
     45 HAO2         2.9840    -0.0510     1.4780 h1         1 3LP       0.049200
     46 HAQ          1.8110     2.0070     1.7000 hn         1 3LP       0.347800
     47 HAX          3.0530     1.1420     3.5280 h1         1 3LP       0.017700
     48 HAM1         1.8300    -0.9390     3.8020 hc         1 3LP       0.047200
     49 HAM2         0.3640    -0.0540     4.2420 hc         1 3LP       0.047200
     50 HAI1         1.4240    -0.8920     6.2540 hc         1 3LP       0.039450
     51 HAI2         2.9620    -0.1520     5.7940 hc         1 3LP       0.039450
     52 HAF1         1.8890     1.2300     7.4640 hc         1 3LP       0.040200
     53 HAF2         0.3970     1.2810     6.5170 hc         1 3LP       0.040200
     54 HAJ1         1.5980     3.3580     6.2110 hc         1 3LP       0.039450
     55 HAJ2         3.0700     2.4860     5.7680 hc         1 3LP       0.039450
     56 HAN1         0.4710     2.5700     4.2160 hc         1 3LP       0.047200
     57 HAN2         2.0050     3.3230     3.7590 hc         1 3LP       0.047200
@<TRIPOS>BOND
     1     1     2 1   
     2     1    43 1   
     3     2    11 1   
     4     2     3 1   
     5     2    42 1   
     6     3     4 1   
     7     3    44 1   
     8     3    45 1   
     9     4     5 1   
    10     4    46 1   
    11     5    10 1   
    12     5     6 1   
    13     5    47 1   
    14     6     7 1   
    15     6    56 1   
    16     6    57 1   
    17     7     8 1   
    18     7    54 1   
    19     7    55 1   
    20     8     9 1   
    21     8    52 1   
    22     8    53 1   
    23     9    10 1   
    24     9    50 1   
    25     9    51 1   
    26    10    48 1   
    27    10    49 1   
    28    11    12 1   
    29    11    40 1   
    30    11    41 1   
    31    12    21 1   
    32    12    13 1   
    33    13    14 ar  
    34    13    19 ar  
    35    14    15 ar  
    36    14    30 1   
    37    15    16 ar  
    38    15    29 1   
    39    16    17 1   
    40    16    18 ar  
    41    17    26 1   
    42    17    27 1   
    43    17    28 1   
    44    18    19 ar  
    45    18    31 1   
    46    19    20 1   
    47    20    22 1   
    48    20    21 2   
    49    21    25 1   
    50    22    23 1   
    51    22    32 1   
    52    22    33 1   
    53    23    24 1   
    54    23    34 1   
    55    23    35 1   
    56    24    25 1   
    57    24    36 1   
    58    24    37 1   
    59    25    38 1   
    60    25    39 1   
@<TRIPOS>SUBSTRUCTURE
     1 3LP         1 TEMP              0 ****  ****    0 ROOT
