@<TRIPOS>MOLECULE
3LQ
   47    51     1     0     0
SMALL
bcc


@<TRIPOS>ATOM
      1 C00          0.0000     0.0000     0.0000 ca         1 3LQ      -0.203000
      2 C01          1.3820     0.0000     0.0000 ca         1 3LQ      -0.043000
      3 C02          2.0780     0.0000     1.1960 ca         1 3LQ      -0.137000
      4 C03          1.3920    -0.0010     2.3970 ca         1 3LQ      -0.078000
      5 C04          0.0070    -0.0020     2.4040 ca         1 3LQ       0.054000
      6 C05         -0.6930    -0.0010     1.2000 ca         1 3LQ       0.052000
      7 O0A         -0.6690    -0.0030     3.5840 os         1 3LQ      -0.114000
      8 O0B         -2.0530     0.0040     1.2030 os         1 3LQ      -0.099000
      9 C0D         -2.7030     0.0110    -0.0700 c3         1 3LQ      -0.247000
     10 C0E         -4.2200     0.0160     0.1330 DU         1 3LQ      -0.349000
     11 N0H         -4.6220     1.2680     0.7800 n          1 3LQ       0.574000
     12 C0K         -4.6600     1.3410     2.1230 c2         1 3LQ       0.091000
     13 N0M         -5.0260     2.4780     2.7430 ns         1 3LQ       0.084000
     14 C0N         -5.3610     3.5680     2.0230 c2         1 3LQ       0.246000
     15 C0O         -5.3230     3.5040     0.6090 c2         1 3LQ      -0.217000
     16 C0P         -4.9480     2.3520     0.0130 c2         1 3LQ      -0.254000
     17 O0Q         -4.3620     0.3660     2.7850 o          1 3LQ      -0.354000
     18 O0S         -5.6930     4.5970     2.5830 o          1 3LQ      -0.367000
     19 CAH         -1.1440    -1.1890     4.0460 ca         1 3LQ       0.127000
     20 CAI         -1.9560    -1.2270     5.1970 ca         1 3LQ      -0.032000
     21 CAY         -2.2900    -0.0500     5.8890 ca         1 3LQ      -0.073000
     22 CAZ         -3.0740    -0.1110     6.9970 ca         1 3LQ      -0.129000
     23 CBA         -3.5620    -1.3440     7.4670 ca         1 3LQ       0.068000
     24 CBC         -4.3860    -1.3820     8.6370 c1         1 3LQ      -0.098000
     25 NBD         -5.0420    -1.3930     9.5640 n1         1 3LQ      -0.061000
     26 CBB         -3.2500    -2.5210     6.8050 ca         1 3LQ      -0.070000
     27 CAJ         -2.4420    -2.4770     5.6610 ca         1 3LQ       0.014000
     28 CAK         -2.1060    -3.6510     4.9630 ca         1 3LQ      -0.122000
     29 CAL         -1.3200    -3.5820     3.8550 ca         1 3LQ      -0.051000
     30 CAM         -0.8410    -2.3600     3.3890 ca         1 3LQ      -0.241000
     31 H1          -0.6420     0.1490    -0.8590 ha         1 3LQ       0.125000
     32 H2           1.8850     0.1280    -0.9510 ha         1 3LQ       0.104000
     33 H3           3.1590     0.0060     1.2700 ha         1 3LQ       0.112000
     34 H4           2.1440     0.0150     3.1770 ha         1 3LQ       0.125000
     35 H5          -3.5550    -0.6530     0.0150 DU         1 3LQ       0.203000
     36 H6          -2.1380    -0.4130    -0.8910 h1         1 3LQ       0.152000
     37 H7          -4.3440     0.8990     0.7490 ha         1 3LQ       0.045500
     38 H8          -4.6510     0.0830    -0.8590 ha         1 3LQ       0.045500
     39 H9          -5.0590     2.6290     3.7320 hn         1 3LQ       0.125000
     40 H10         -5.6450     4.2130    -0.1450 ha         1 3LQ       0.145000
     41 H11         -5.1470     2.2620    -1.0480 h4         1 3LQ       0.146000
     42 H12         -1.9460     0.9670     5.7450 ha         1 3LQ       0.116000
     43 H13         -3.1210     0.9370     7.2640 ha         1 3LQ       0.123000
     44 H14         -3.9250    -3.3390     7.0260 ha         1 3LQ       0.119000
     45 H15         -2.5560    -4.6210     5.1350 ha         1 3LQ       0.111000
     46 H16         -0.9090    -4.3950     3.2690 ha         1 3LQ       0.105000
     47 H17         -0.8270    -2.1970     2.3180 ha         1 3LQ       0.127000
@<TRIPOS>BOND
     1     1     2 1   
     2     1     6 1   
     3     1    31 1   
     4     2     3 1   
     5     2    32 1   
     6     3     4 1   
     7     3    33 1   
     8     4     5 1   
     9     4    34 1   
    10     5     6 1   
    11     5     7 1   
    12     6     8 1   
    13     7    19 1   
    14     8     9 1   
    15     9    10 1   
    16     9    35 1   
    17     9    36 1   
    18    10    11 1   
    19    10    35 1   
    20    10    37 1   
    21    10    38 1   
    22    11    12 1   
    23    11    16 1   
    24    12    13 1   
    25    12    17 1   
    26    13    14 1   
    27    13    39 1   
    28    14    15 1   
    29    14    18 1   
    30    15    16 1   
    31    15    40 1   
    32    16    41 1   
    33    19    20 1   
    34    19    30 1   
    35    20    21 1   
    36    20    27 1   
    37    21    22 1   
    38    21    42 1   
    39    22    23 1   
    40    22    43 1   
    41    23    24 1   
    42    23    26 1   
    43    24    25 1   
    44    26    27 1   
    45    26    44 1   
    46    27    28 1   
    47    28    29 1   
    48    28    45 1   
    49    29    30 1   
    50    29    46 1   
    51    30    47 1   
@<TRIPOS>SUBSTRUCTURE
     1 3LQ         1 TEMP              0 ****  ****    0 ROOT
