@<TRIPOS>MOLECULE
molecule
   51    55     1     0     0
SMALL
bcc


@<TRIPOS>ATOM
      1 OAA          0.0000     0.0000     0.0000 o          1 3LS      -0.845800
      2 CAF         -0.9050    -2.0300    -4.9070 cc         1 3LS       0.034400
      3 CAG         -0.3200    -0.9630    -4.0890 cc         1 3LS       0.019900
      4 CAI          0.4270     1.1460    -2.9460 cc         1 3LS       0.071900
      5 CAJ          0.7000     2.5000    -2.4510 cc         1 3LS      -0.004100
      6 CAL          1.4470     4.6090    -1.3070 cc         1 3LS      -0.004100
      7 CAM          2.0320     5.6760    -0.4870 cc         1 3LS       0.071900
      8 CAO          2.7760     7.7840     0.6590 cc         1 3LS       0.019900
      9 CAR          3.7990    11.2460     2.2940 cc         1 3LS      -0.049200
     10 CAS          4.3640    12.2790     3.0840 c          1 3LS       0.908200
     11 OAU          4.9780     4.4970    -0.8020 o          1 3LS      -0.845800
     12 CAW         -2.2090    -2.9880    -6.5470 cd         1 3LS      -0.164000
     13 CAX         -1.8030    -1.8430    -5.9260 cd         1 3LS      -0.196000
     14 CAY          0.5750    -1.1500    -3.0740 cd         1 3LS      -0.116000
     15 CAZ          0.9820    -0.0000    -2.4500 cd         1 3LS      -0.046300
     16 CBA          0.1460     3.6460    -2.9460 cd         1 3LS      -0.191000
     17 CBB          0.5540     4.7960    -2.3220 cd         1 3LS      -0.191000
     18 CBH          1.9620    -0.0010    -1.3040 c3         1 3LS      -0.138100
     19 CBL          4.5930     3.7410     0.0580 c          1 3LS       0.889600
     20 CAD         -1.6450    -4.1370    -6.0580 cc         1 3LS      -0.049200
     21 CAP          3.0470     9.1380     1.1570 cc         1 3LS       0.034400
     22 OAB         -2.6900    -5.6080    -7.4560 o          1 3LS      -0.858050
     23 OAT          4.0480    13.4370     2.8870 o          1 3LS      -0.858050
     24 OAV         -1.2920    -6.5050    -5.9770 o          1 3LS      -0.858050
     25 SAE         -0.5540    -3.7440    -4.7360 ss         1 3LS      -0.095300
     26 SAH         -0.6600     0.7530    -4.2710 ss         1 3LS      -0.226300
     27 SAK          1.7870     2.8930    -1.1250 ss         1 3LS       0.154200
     28 SAN          1.6810     7.3910    -0.6600 ss         1 3LS      -0.226300
     29 SAQ          4.1520     9.5330     2.4660 ss         1 3LS      -0.095300
     30 CBC          2.9260     5.4900     0.5290 cd         1 3LS      -0.046300
     31 CBD          3.3320     6.6390     1.1540 cd         1 3LS      -0.116000
     32 CBE          2.4870    10.2870     0.6630 cd         1 3LS      -0.196000
     33 CBF          2.8910    11.4330     1.2860 cd         1 3LS      -0.164000
     34 CBJ          1.2080     0.0000     0.0000 c          1 3LS       0.889600
     35 OBG          5.2540    11.9770     4.0540 o          1 3LS      -0.858050
     36 OBK          1.8790     0.0000     1.1630 o          1 3LS      -0.845800
     37 OBM          5.2040     2.5590     0.2360 o          1 3LS      -0.845800
     38 HAW         -2.9160    -2.9880    -7.3680 ha         1 3LS       0.136500
     39 HAX         -2.1680    -0.8640    -6.2100 ha         1 3LS       0.123000
     40 HAY          0.9330    -2.1300    -2.7850 ha         1 3LS       0.145000
     41 HBA         -0.5600     3.6450    -3.7680 ha         1 3LS       0.113000
     42 HBB          0.1950     5.7770    -2.6110 ha         1 3LS       0.113000
     43 HBH          2.5830    -0.8860    -1.3620 hc         1 3LS       0.057450
     44 HBI          2.5860     0.8830    -1.3620 hc         1 3LS       0.057450
     45 HBK          2.6320     3.3990     0.8120 hc         1 3LS       0.057450
     46 HBJ          3.7430     4.1480     1.9670 hc         1 3LS       0.057450
     47 HBD          4.0380     6.6390     1.9750 ha         1 3LS       0.145000
     48 HBE          1.7720    10.2860    -0.1510 ha         1 3LS       0.123000
     49 HBF          2.5280    12.4130     1.0000 ha         1 3LS       0.136500
     50 CBI          3.4270     4.1250     0.9310 c3         1 3LS      -0.138100
     51 CAC         -1.9080    -5.4430    -6.5380 c          1 3LS       0.908200
@<TRIPOS>BOND
     1    11    19 1   
     2    22    51 1   
     3    19    50 1   
     4    19    37 1   
     5    27     6 1   
     6    27     5 1   
     7    50    30 1   
     8    23    10 1   
     9     6     7 1   
    10     6    17 2   
    11    26     4 1   
    12    26     3 1   
    13     7    30 2   
    14     7    28 1   
    15    25    20 1   
    16    25     2 1   
    17     5    16 2   
    18     5     4 1   
    19    51    24 1   
    20    51    20 1   
    21    30    31 1   
    22    17    16 1   
    23     1    34 1   
    24     4    15 2   
    25    28     8 1   
    26    20    12 2   
    27    10    35 1   
    28    10     9 1   
    29    29     9 1   
    30    29    21 1   
    31     3     2 1   
    32     3    14 2   
    33    31     8 2   
    34     2    13 2   
    35     8    21 1   
    36     9    33 2   
    37    15    14 1   
    38    15    18 1   
    39    34    18 1   
    40    34    36 1   
    41    21    32 2   
    42    12    13 1   
    43    33    32 1   
    44    12    38 1   
    45    13    39 1   
    46    14    40 1   
    47    16    41 1   
    48    17    42 1   
    49    18    43 1   
    50    18    44 1   
    51    50    45 1   
    52    50    46 1   
    53    31    47 1   
    54    32    48 1   
    55    33    49 1   
@<TRIPOS>SUBSTRUCTURE
     1 3LS         1 TEMP              0 ****  ****    0 ROOT
