@<TRIPOS>MOLECULE
molecule
   66    66     1     0     0
SMALL
bcc


@<TRIPOS>ATOM
      1 CAA          0.0000     0.0000     0.0000 c3         1 3LT       0.309900
      2 CAJ          1.5310     0.0000     0.0000 c3         1 3LT       0.017700
      3 CAI          2.0350     0.0000     1.4470 c3         1 3LT       0.134100
      4 CAG          1.4530     1.2140     2.1770 c3         1 3LT       0.115100
      5 CAD         -0.0750     1.1680     2.0930 c3         1 3LT       0.039100
      6 CAE         -0.6610     2.4100     2.7690 c3         1 3LT       0.015400
      7 CAN          2.7620    -2.3910    -2.7250 c3         1 3LT      -0.264100
      8 CAP          4.1070    -1.1870     1.6430 c3         1 3LT       0.079100
      9 CAR          5.4460    -1.1730     0.9510 c          1 3LT       0.658100
     10 CAQ          4.3080    -1.4400     3.1380 c3         1 3LT      -0.118100
     11 OAB         -0.4770     0.0570    -1.3460 oh         1 3LT      -0.510800
     12 OAO          3.4610     0.0740     1.4560 os         1 3LT      -0.368600
     13 OAH          1.8580     1.1860     3.5480 oh         1 3LT      -0.595800
     14 OAC         -0.4750     1.1380     0.7220 os         1 3LT      -0.435600
     15 OAF         -2.0860     2.3100     2.7940 oh         1 3LT      -0.600800
     16 OAM          2.0710    -0.1360    -2.6380 o          1 3LT      -0.595100
     17 OAS          5.8510    -0.1530     0.4340 o          1 3LT      -0.571100
     18 NAK          2.0200    -1.1970    -0.6900 ns         1 3LT      -0.618900
     19 NAT          6.1930    -2.2940     0.9060 ns         1 3LT      -0.581900
     20 CAU          7.4940    -2.2800     0.2330 c3         1 3LT       0.056700
     21 CAW          7.8400    -3.6750    -0.2210 c          1 3LT       0.597100
     22 CAV          8.5660    -1.7800     1.2050 c3         1 3LT      -0.102100
     23 OAX          7.0740    -4.5910    -0.0050 o          1 3LT      -0.614100
     24 C            8.7010    -5.5230    -2.6520 c          1 3LT       0.462100
     25 N            8.9990    -3.9050    -0.8680 ns         1 3LT      -0.470900
     26 CA           9.3350    -5.2610    -1.3110 c3         1 3LT       0.026700
     27 CB          10.8540    -5.3980    -1.4280 c3         1 3LT      -0.094400
     28 CG          11.4880    -5.2550    -0.0430 c3         1 3LT      -0.134400
     29 OE2         13.7540    -5.2970     0.9370 o          1 3LT      -0.820800
     30 OE1         13.4920    -5.5790    -1.2390 o          1 3LT      -0.820800
     31 H1          -0.3590    -0.9040     0.4780 h2         1 3LT       0.020700
     32 H2           1.8910     0.8880    -0.5060 h1         1 3LT       0.131700
     33 H3           1.7110    -0.9080     1.9420 h1         1 3LT       0.047700
     34 H4           1.8120     2.1220     1.7070 h1         1 3LT       0.076700
     35 H5          -0.4350     0.1510     2.1880 h1         1 3LT       0.047700
     36 H6          -0.1040     2.6640     1.8760 h1         1 3LT       0.167700
     37 H7          -0.3960     1.4780     3.2540 h1         1 3LT       0.167700
     38 H8           3.3730    -1.4960    -2.6990 hc         1 3LT       0.122367
     39 H9           2.1750    -2.5020    -1.8220 hc         1 3LT       0.122367
     40 H10          2.1740    -2.4800    -3.6300 hc         1 3LT       0.122367
     41 H11          3.4920    -1.9740     1.2230 h1         1 3LT       0.034700
     42 H12          5.1820    -2.0630     3.2850 hc         1 3LT       0.055700
     43 H13          3.4360    -1.9420     3.5400 hc         1 3LT       0.055700
     44 H14          4.4490    -0.4950     3.6490 hc         1 3LT       0.055700
     45 H15         -0.0830    -0.8000    -1.3440 ho         1 3LT       0.392000
     46 H16          2.0540     2.0630     3.8350 ho         1 3LT       0.424000
     47 H17         -2.4430     3.0400     3.2730 ho         1 3LT       0.426000
     48 H18          2.1360    -2.0530    -0.1850 hn         1 3LT       0.316500
     49 H19          5.8480    -3.1420     1.3100 hn         1 3LT       0.333500
     50 H20          7.4490    -1.6220    -0.6260 h1         1 3LT       0.094700
     51 H22          8.7130    -2.5140     1.9880 hc         1 3LT       0.062367
     52 H23          8.2470    -0.8430     1.6430 hc         1 3LT       0.062367
     53 H24          9.4960    -1.6310     0.6700 hc         1 3LT       0.062367
     54 H26          8.8100    -3.1060    -1.4410 hn         1 3LT       0.315500
     55 H28          9.6530    -6.6600    -3.8840 hn         1 3LT       0.475800
     56 H29          9.0500    -7.4180    -2.5670 hn         1 3LT       0.475800
     57 H30          8.9630    -5.9790    -0.5890 h1         1 3LT       0.122700
     58 H31         11.2370    -4.6230    -2.0820 hc         1 3LT       0.055700
     59 H32         11.0990    -6.3700    -1.8380 hc         1 3LT       0.055700
     60 H33         11.2540    -4.2740     0.3540 hc         1 3LT       0.032700
     61 H34         10.8000    -5.9770     0.3790 hc         1 3LT       0.032700
     62 CAL          2.2600    -1.1600    -2.0160 c          1 3LT       0.590100
     63 NBH          8.8740    -6.7150    -3.2580 nz         1 3LT      -0.681400
     64 HBH3         8.0490    -6.9510    -3.7720 hn         1 3LT       0.475800
     65 O            8.0350    -4.6630    -3.1860 o          1 3LT      -0.442100
     66 CD          12.9840    -5.3890    -0.1600 c          1 3LT       0.898600
@<TRIPOS>BOND
     1    63    24 1
     2    23    21 2
     3    24    65 2
     4    24    26 1
     5    25    26 1
     6    25    21 1
     7    26    27 1
     8    21    20 1
     9    10     8 1
    10    17     9 2
    11     9    19 1
    12     9     8 1
    13    20    19 1
    14    20    22 1
    15    27    28 1
    16     8    12 1
    17    28    66 1
    18    12     3 1
    19    13     4 1
    20    66    29 1
    21    66    30 1
    22     3     4 1
    23     3     2 1
    24     7    62 1
    25     4     5 1
    26    62    18 1
    27    62    16 2
    28    18     2 1
    29     2     1 1
    30     5     6 1
    31     5    14 1
    32     6    15 1
    33     1    14 1
    34     1    11 1
    35     1    31 1
    36     2    32 1
    37     3    33 1
    38     4    34 1
    39     5    35 1
    40     6    36 1
    41     6    37 1
    42     7    38 1
    43     7    39 1
    44     7    40 1
    45     8    41 1
    46    10    42 1
    47    10    43 1
    48    10    44 1
    49    11    45 1
    50    13    46 1
    51    15    47 1
    52    18    48 1
    53    19    49 1
    54    20    50 1
    55    22    51 1
    56    22    52 1
    57    22    53 1
    58    25    54 1
    59    63    55 1
    60    63    56 1
    61    26    57 1
    62    27    58 1
    63    27    59 1
    64    28    60 1
    65    28    61 1
    66    64    63 1
@<TRIPOS>SUBSTRUCTURE
     1 3LT         1 TEMP              0 ****  ****    0 ROOT
