@<TRIPOS>MOLECULE
molecule
   53    55     1     0     0
SMALL
bcc


@<TRIPOS>ATOM
      1 S1           0.0000     0.0000     0.0000 s6         1 3LU       1.060800
      2 C1           3.5700    -2.2290    -2.4890 ca         1 3LU      -0.145500
      3 C2           3.2390    -3.4850    -2.0160 ca         1 3LU      -0.157000
      4 C3           2.4450    -3.6130    -0.8880 ca         1 3LU      -0.145500
      5 C4           2.3170    -1.2290    -0.7110 ca         1 3LU      -0.015300
      6 C5           1.8140     0.0000     0.0000 c3         1 3LU      -0.229600
      7 C6           2.3170     0.0000     1.4210 c          1 3LU       0.717100
      8 C7           4.0390     2.5730     3.7060 c3         1 3LU       0.081600
      9 C9           4.5240     5.2030     3.5710 c3         1 3LU       0.031900
     10 C10          4.9180     5.2700     4.8960 c2         1 3LU      -0.488400
     11 C11          3.1080    -1.0980    -1.8360 ca         1 3LU      -0.104000
     12 N1           2.8060     1.2310     2.0180 ns         1 3LU      -0.609900
     13 O1          -0.5230    -0.9750     1.0280 o          1 3LU      -0.637200
     14 N3           4.4010     2.5990     5.3360 nu         1 3LU      -0.739000
     15 O2          -0.5480     1.3870     0.2320 o          1 3LU      -0.637200
     16 S2           3.4730     3.8250     3.2420 ss         1 3LU       0.096800
     17 O3          -0.5480    -0.3060    -1.3730 o          1 3LU      -0.637200
     18 O4           2.2750    -0.9940     2.0640 o          1 3LU      -0.546100
     19 C12          1.9830    -2.4820    -0.2340 ca         1 3LU      -0.104000
     20 O7           5.5810     3.7760     8.0720 o          1 3LU      -0.801800
     21 O8           7.3810     3.8110     6.8410 o          1 3LU      -0.801800
     22 C13          3.1240     1.2710     3.3990 c3         1 3LU       0.070700
     23 C14          1.8640     1.3470     4.2000 c          1 3LU       0.883600
     24 C15          5.2630     3.8090     5.6760 ce         1 3LU       0.242800
     25 H1           4.1940    -2.1290    -3.3690 ha         1 3LU       0.106000
     26 H2           3.6000    -4.3690    -2.5270 ha         1 3LU       0.097000
     27 H3           2.1860    -4.5970    -0.5170 ha         1 3LU       0.106000
     28 H4           2.1740     0.8850    -0.5100 h1         1 3LU       0.084700
     29 H5           4.9460     2.3710     3.1490 h2         1 3LU       0.036700
     30 H6           3.9920     6.1130     3.3190 h1         1 3LU       0.018700
     31 H7           5.4070     5.1240     2.9480 h1         1 3LU       0.018700
     32 H9           3.3670    -0.1140    -2.2070 ha         1 3LU       0.155500
     33 H10          2.9450     2.0420     1.4490 hn         1 3LU       0.303500
     34 H11          1.3620    -2.5830     0.6480 ha         1 3LU       0.155500
     35 H14          3.6700     0.3750     3.6700 h1         1 3LU       0.064700
     36 H15          6.0620     6.3810     6.3320 h1         1 3LU       0.072700
     37 N2           4.3110     7.4080     5.8820 na         1 3LU       0.106900
     38 H17          6.0100     7.1090     4.7210 h1         1 3LU       0.072700
     39 C19          3.9790     7.4390     7.1920 ca         1 3LU      -0.024300
     40 C17          2.9120     8.2130     7.6200 ca         1 3LU      -0.161000
     41 C20          2.2020     8.9400     6.7240 ca         1 3LU      -0.059000
     42 C21          2.5360     8.9080     5.4110 ca         1 3LU      -0.161000
     43 C22          3.6030     8.1330     4.9870 ca         1 3LU      -0.024300
     44 H16          4.5420     6.8520     7.9070 h4         1 3LU       0.206500
     45 H18          2.6250     8.2100     8.6640 ha         1 3LU       0.160500
     46 H19          1.3350     9.5030     7.0490 ha         1 3LU       0.147000
     47 H20          1.9840     9.5070     4.6970 ha         1 3LU       0.160500
     48 H21          3.8870     8.1280     3.9420 h4         1 3LU       0.206500
     49 H22          4.3040     1.8040     5.9370 hn         1 3LU       0.468800
     50 O5           1.7420     0.6600     5.2480 o          1 3LU      -0.817800
     51 C8           6.1260     3.8030     6.9370 c          1 3LU       0.870800
     52 O6           0.9240     2.0950     3.8250 o          1 3LU      -0.817800
     53 C16          5.4340     6.5850     5.4740 c3         1 3LU       0.060500
@<TRIPOS>BOND
     1    52    23 1   
     2    23    50 1   
     3    23    22 1   
     4     8    22 1   
     5     8    14 1   
     6     8    16 1   
     7    22    12 1   
     8    14    24 1   
     9    16     9 1   
    10     9    10 1   
    11    20    51 1   
    12    24    51 1   
    13    24    10 2   
    14    12     7 1   
    15    51    21 1   
    16    10    53 1   
    17    18     7 2   
    18     7     6 1   
    19    17     1 1   
    20     6     1 1   
    21     6     5 1   
    22     1    15 1   
    23     1    13 1   
    24     5    11 ar  
    25     5    19 ar  
    26    11     2 ar  
    27    19     4 ar  
    28     2     3 ar  
    29     4     3 ar  
    30     2    25 1   
    31     3    26 1   
    32     4    27 1   
    33     6    28 1   
    34     8    29 1   
    35     9    30 1   
    36     9    31 1   
    37    11    32 1   
    38    12    33 1   
    39    19    34 1   
    40    22    35 1   
    41    53    36 1   
    42    53    37 1   
    43    53    38 1   
    44    37    39 1   
    45    39    40 ar  
    46    40    41 ar  
    47    41    42 ar  
    48    42    43 ar  
    49    43    37 2   
    50    39    44 1   
    51    40    45 1   
    52    41    46 1   
    53    42    47 1   
    54    43    48 1   
    55    14    49 1   
@<TRIPOS>SUBSTRUCTURE
     1 3LU         1 TEMP              0 ****  ****    0 ROOT
