@<TRIPOS>MOLECULE
3LU
   53    55     1     0     0
SMALL
bcc


@<TRIPOS>ATOM
      1 S1           0.0000     0.0000     0.0000 s6         1 3LU       0.789800
      2 C1           3.5700    -2.2290    -2.4890 ca         1 3LU      -0.122500
      3 C2           3.2390    -3.4850    -2.0160 ca         1 3LU      -0.143000
      4 C3           2.4450    -3.6130    -0.8880 ca         1 3LU      -0.122500
      5 C4           2.3170    -1.2290    -0.7110 ca         1 3LU       0.001700
      6 C5           1.8140     0.0000     0.0000 c3         1 3LU      -0.063600
      7 C6           2.3170     0.0000     1.4210 c          1 3LU       0.656100
      8 C7           4.0390     2.5730     3.7060 c3         1 3LU       0.104600
      9 C9           4.5240     5.2030     3.5710 c3         1 3LU       0.167900
     10 C10          4.9180     5.2700     4.8960 c2         1 3LU      -0.562400
     11 C11          3.1080    -1.0980    -1.8360 ca         1 3LU      -0.089000
     12 N1           2.8060     1.2310     2.0180 ns         1 3LU      -0.252900
     13 O1          -0.5230    -0.9750     1.0280 o          1 3LU      -0.597867
     14 N3           4.4010     2.5990     5.3360 nu         1 3LU      -0.372000
     15 O2          -0.5480     1.3870     0.2320 o          1 3LU      -0.597867
     16 S2           3.4730     3.8250     3.2420 ss         1 3LU      -0.124200
     17 O3          -0.5480    -0.3060    -1.3730 o          1 3LU      -0.597867
     18 O4           2.2750    -0.9940     2.0640 o          1 3LU      -0.588100
     19 C12          1.9830    -2.4820    -0.2340 ca         1 3LU      -0.089000
     20 O7           5.5810     3.7760     8.0720 o          1 3LU      -0.861300
     21 O8           7.3810     3.8110     6.8410 o          1 3LU      -0.861300
     22 C13          3.1240     1.2710     3.3990 c3         1 3LU      -0.007300
     23 C14          1.8640     1.3470     4.2000 c          1 3LU       0.957600
     24 C15          5.2630     3.8090     5.6760 ce         1 3LU       0.171800
     25 H1           4.1940    -2.1290    -3.3690 ha         1 3LU       0.081500
     26 H2           3.6000    -4.3690    -2.5270 ha         1 3LU       0.075000
     27 H3           2.1860    -4.5970    -0.5170 ha         1 3LU       0.081500
     28 H4           2.1740     0.8850    -0.5100 h1         1 3LU       0.059700
     29 H5           4.9460     2.3710     3.1490 h2         1 3LU       0.021700
     30 H6           3.9920     6.1130     3.3190 h1         1 3LU       0.002200
     31 H7           5.4070     5.1240     2.9480 h1         1 3LU       0.002200
     32 H9           3.3670    -0.1140    -2.2070 ha         1 3LU       0.133000
     33 H10          2.9450     2.0420     1.4490 hn         1 3LU       0.179500
     34 H11          1.3620    -2.5830     0.6480 ha         1 3LU       0.133000
     35 H14          3.6700     0.3750     3.6700 h1         1 3LU       0.037700
     36 H15          6.0620     6.3810     6.3320 h1         1 3LU       0.049200
     37 N2           4.3110     7.4080     5.8820 na         1 3LU       0.655900
     38 H17          6.0100     7.1090     4.7210 h1         1 3LU       0.049200
     39 C19          3.9790     7.4390     7.1920 ca         1 3LU      -0.211300
     40 C17          2.9120     8.2130     7.6200 ca         1 3LU      -0.075000
     41 C20          2.2020     8.9400     6.7240 ca         1 3LU      -0.065000
     42 C21          2.5360     8.9080     5.4110 ca         1 3LU      -0.075000
     43 C22          3.6030     8.1330     4.9870 ca         1 3LU      -0.211300
     44 H16          4.5420     6.8520     7.9070 h4         1 3LU       0.177000
     45 H18          2.6250     8.2100     8.6640 ha         1 3LU       0.127000
     46 H19          1.3350     9.5030     7.0490 ha         1 3LU       0.118000
     47 H20          1.9840     9.5070     4.6970 ha         1 3LU       0.127000
     48 H21          3.8870     8.1280     3.9420 h4         1 3LU       0.177000
     49 H22          4.3040     1.8040     5.9370 hn         1 3LU       0.340800
     50 O5           1.7420     0.6600     5.2480 o          1 3LU      -0.863300
     51 C8           6.1260     3.8030     6.9370 c          1 3LU       0.955800
     52 O6           0.9240     2.0950     3.8250 o          1 3LU      -0.863300
     53 C16          5.4340     6.5850     5.4740 c3         1 3LU      -0.018500
@<TRIPOS>BOND
     1     1     6 1   
     2     1    13 1   
     3     1    15 1   
     4     1    17 1   
     5     2     3 ar  
     6     2    11 ar  
     7     2    25 1   
     8     3     4 ar  
     9     3    26 1   
    10     4    19 ar  
    11     4    27 1   
    12     5     6 1   
    13     5    11 ar  
    14     5    19 ar  
    15     6     7 1   
    16     6    28 1   
    17     7    12 1   
    18     7    18 2   
    19     8    14 1   
    20     8    16 1   
    21     8    22 1   
    22     8    29 1   
    23     9    10 1   
    24     9    16 1   
    25     9    30 1   
    26     9    31 1   
    27    10    24 2   
    28    10    53 1   
    29    11    32 1   
    30    12    22 1   
    31    12    33 1   
    32    14    24 1   
    33    14    49 1   
    34    19    34 1   
    35    20    51 1   
    36    21    51 1   
    37    22    23 1   
    38    22    35 1   
    39    23    50 1   
    40    23    52 1   
    41    24    51 1   
    42    36    53 1   
    43    37    39 1   
    44    37    43 2   
    45    37    53 1   
    46    38    53 1   
    47    39    40 ar  
    48    39    44 1   
    49    40    41 ar  
    50    40    45 1   
    51    41    42 ar  
    52    41    46 1   
    53    42    43 ar  
    54    42    47 1   
    55    43    48 1   
@<TRIPOS>SUBSTRUCTURE
     1 3LU         1 TEMP              0 ****  ****    0 ROOT
