@<TRIPOS>MOLECULE
molecule
   56    57     1     0     0
SMALL
bcc


@<TRIPOS>ATOM
      1 C1           0.0000     0.0000     0.0000 c          1 3LV       0.880200
      2 O1           1.3480     0.0000     0.0000 o          1 3LV      -0.833800
      3 C2          -0.7370     0.0000     1.2770 ca         1 3LV      -0.094600
      4 O2          -0.6080     0.0030    -1.0520 o          1 3LV      -0.833800
      5 C3          -2.1350     0.0050     1.2790 ca         1 3LV      -0.089000
      6 C4          -2.8200     0.0060     2.4740 ca         1 3LV      -0.103300
      7 C5          -2.1220     0.0010     3.6780 ca         1 3LV       0.006600
      8 N5          -2.8190     0.0020     4.8850 n          1 3LV      -0.385000
      9 C6          -0.7300    -0.0020     3.6780 ca         1 3LV      -0.154000
     10 C7          -0.0390    -0.0090     2.4890 ca         1 3LV      -0.095000
     11 C8          -4.3270     0.0110     2.4770 c3         1 3LV       0.207100
     12 N8          -4.8200    -0.1650     1.1040 n3         1 3LV      -0.718600
     13 C9          -4.5880    -1.5360     0.6330 c3         1 3LV       0.159800
     14 C10         -4.7370    -1.5850    -0.8890 c3         1 3LV      -0.084400
     15 C11         -4.4950    -3.0140    -1.3800 c3         1 3LV      -0.092600
     16 C12         -6.2410     0.1920     1.0060 c3         1 3LV       0.159800
     17 C13         -6.3880     1.7150     1.0300 c3         1 3LV      -0.084400
     18 C14         -7.8730     2.0840     0.9880 c3         1 3LV      -0.092600
     19 C15         -3.3200     1.1030     5.4710 c          1 3LV       0.702500
     20 O15         -3.2370     2.2280     5.0230 o          1 3LV      -0.617500
     21 C16         -4.0040     0.7370     6.7700 c3         1 3LV      -0.181400
     22 C17         -3.4800    -0.6840     7.0850 c3         1 3LV      -0.075400
     23 C18         -3.1050    -1.2000     5.6760 c3         1 3LV       0.121400
     24 C19         -4.2740    -1.9780     5.0690 c3         1 3LV       0.136900
     25 O19         -4.6670    -3.0220     5.9630 oh         1 3LV      -0.596800
     26 C20         -1.8600    -2.0860     5.7510 c3         1 3LV       0.136900
     27 O20         -2.1320    -3.2210     6.5760 oh         1 3LV      -0.596800
     28 H3          -2.6780     0.0090     0.3420 ha         1 3LV       0.175000
     29 H6          -0.1900    -0.0080     4.6180 ha         1 3LV       0.112000
     30 H7           1.0440    -0.0120     2.4910 ha         1 3LV       0.158000
     31 H8          -4.6850     0.9540     2.8710 h1         1 3LV       0.036200
     32 H8A         -4.6900    -0.8000     3.0970 h1         1 3LV       0.036200
     33 H9          -5.3120    -2.2020     1.0880 h1         1 3LV       0.029950
     34 H9A         -3.5880    -1.8480     0.9080 h1         1 3LV       0.029950
     35 H10         -4.0130    -0.9200    -1.3440 hc         1 3LV       0.055200
     36 H10A        -5.7370    -1.2740    -1.1640 hc         1 3LV       0.055200
     37 H11         -3.4870    -3.3180    -1.1240 hc         1 3LV       0.028200
     38 H11A        -4.6220    -3.0530    -2.4550 hc         1 3LV       0.028200
     39 H11B        -5.2050    -3.6830    -0.9080 hc         1 3LV       0.028200
     40 H12         -6.6470    -0.1950     0.0790 h1         1 3LV       0.029950
     41 H12A        -6.7800    -0.2350     1.8430 h1         1 3LV       0.029950
     42 H13         -5.8860     2.1400     0.1690 hc         1 3LV       0.055200
     43 H13A        -5.9440     2.1060     1.9370 hc         1 3LV       0.055200
     44 H14         -7.9990     3.0100     0.4400 hc         1 3LV       0.028200
     45 H14A        -8.2420     2.2100     1.9990 hc         1 3LV       0.028200
     46 H14B        -8.4280     1.2950     0.4960 hc         1 3LV       0.028200
     47 H16         -5.0790     0.7230     6.6400 hc         1 3LV       0.067200
     48 H16A        -3.7180     1.4270     7.5540 hc         1 3LV       0.067200
     49 H17         -2.6070    -0.6400     7.7250 hc         1 3LV       0.066700
     50 H17A        -4.2610    -1.2940     7.5240 hc         1 3LV       0.066700
     51 H19         -5.1090    -1.3070     4.9080 h1         1 3LV       0.034700
     52 H19A        -3.9690    -2.4080     4.1230 h1         1 3LV       0.034700
     53 HO19        -5.4550    -3.4290     5.6430 ho         1 3LV       0.393500
     54 H20         -1.0390    -1.5200     6.1740 h1         1 3LV       0.034700
     55 H20A        -1.5930    -2.4190     4.7550 h1         1 3LV       0.034700
     56 HO20        -1.4200    -3.8360     6.5090 ho         1 3LV       0.393500
@<TRIPOS>BOND
     1     3     1 1
     2     1     4 1
     3     1     2 1
     4     5     3 ar
     5    10     3 ar
     6     6     5 ar
     7     5    28 1
     8    11     6 1
     9     7     6 ar
    10     8     7 1
    11     7     9 ar
    12    23     8 1
    13     8    19 1
    14     9    10 ar
    15     9    29 1
    16    10    30 1
    17    11    12 1
    18    11    31 1
    19    11    32 1
    20    13    12 1
    21    12    16 1
    22    13    14 1
    23    13    33 1
    24    13    34 1
    25    15    14 1
    26    14    35 1
    27    14    36 1
    28    15    37 1
    29    15    38 1
    30    15    39 1
    31    17    16 1
    32    16    40 1
    33    16    41 1
    34    17    18 1
    35    17    42 1
    36    17    43 1
    37    18    44 1
    38    18    45 1
    39    18    46 1
    40    21    19 1
    41    19    20 2
    42    22    21 1
    43    21    47 1
    44    21    48 1
    45    22    23 1
    46    22    49 1
    47    22    50 1
    48    26    23 1
    49    23    24 1
    50    24    25 1
    51    24    51 1
    52    24    52 1
    53    25    53 1
    54    27    26 1
    55    26    54 1
    56    26    55 1
    57    27    56 1
@<TRIPOS>SUBSTRUCTURE
     1 3LV         1 TEMP              0 ****  ****    0 ROOT
