@<TRIPOS>MOLECULE
molecule
   39    42     1     0     0
SMALL
bcc


@<TRIPOS>ATOM
      1 S            0.0000     0.0000     0.0000 ss         1 3LW      -0.052800
      2 Br           2.8490     0.0010    -1.5440 br         1 3LW       0.028900
      3 C1           1.7580     0.0000     0.0000 cc         1 3LW       0.068000
      4 C2           2.2060     0.0000     1.2580 cd         1 3LW      -0.139000
      5 N2          -1.6820     1.3850     2.8800 ny         1 3LW      -0.729000
      6 C3           1.2180    -0.0010     2.2280 cd         1 3LW      -0.088000
      7 C5          -1.2770    -0.0010     2.6050 c3         1 3LW       0.192100
      8 C10         -2.8970     1.3840     3.7070 c3         1 3LW       0.110200
      9 C12         -0.0300    -0.0010     1.7580 cc         1 3LW      -0.175400
     10 C61         -3.3190     2.8270     3.9930 c3         1 3LW      -0.085067
     11 C62         -2.6170     0.6630     5.0260 c3         1 3LW      -0.085067
     12 C63         -4.0210     0.6630     2.9590 c3         1 3LW      -0.085067
     13 C71         -4.5850     2.8270     4.8520 c3         1 3LW      -0.058367
     14 C72         -3.8820     0.6630     5.8860 c3         1 3LW      -0.058367
     15 C73         -5.2860     0.6630     3.8190 c3         1 3LW      -0.058367
     16 C81         -4.3040     2.1060     6.1730 c3         1 3LW      -0.078067
     17 C82         -5.0060    -0.0580     5.1400 c3         1 3LW      -0.078067
     18 C83         -5.7080     2.1060     4.1060 c3         1 3LW      -0.078067
     19 H2           3.2620     0.0000     1.5010 ha         1 3LW       0.185000
     20 H3           1.4410    -0.0010     3.2880 ha         1 3LW       0.158000
     21 H5          -2.0720    -0.5120     2.0770 hx         1 3LW       0.114200
     22 H61         -2.5230     3.3370     4.5220 hc         1 3LW       0.058867
     23 H81         -5.2000     2.1060     6.7820 hc         1 3LW       0.064033
     24 H62         -1.8210     1.1740     5.5550 hc         1 3LW       0.058867
     25 H82         -4.7080    -1.0800     4.9380 hc         1 3LW       0.064033
     26 HN2         -1.8660     1.8560     2.0170 hn         1 3LW       0.446300
     27 H63         -3.7230    -0.3590     2.7560 hc         1 3LW       0.058867
     28 H83         -6.6040     2.1060     4.7150 hc         1 3LW       0.064033
     29 H5A         -1.0780    -0.5110     3.5400 hx         1 3LW       0.114200
     30 H61A        -3.5170     3.3380     3.0590 hc         1 3LW       0.058867
     31 H62A        -2.3180    -0.3580     4.8230 hc         1 3LW       0.058867
     32 H63A        -4.2200     1.1740     2.0250 hc         1 3LW       0.058867
     33 H71         -4.8840     3.8480     5.0550 hc         1 3LW       0.083033
     34 H72         -3.6830     0.1520     6.8200 hc         1 3LW       0.083033
     35 H73         -6.0820     0.1520     3.2910 hc         1 3LW       0.083033
     36 H81A        -3.5080     2.6170     6.7010 hc         1 3LW       0.064033
     37 H82A        -5.9020    -0.0580     5.7490 hc         1 3LW       0.064033
     38 H83A        -5.9060     2.6160     3.1710 hc         1 3LW       0.064033
     39 HN2A        -0.9470     1.8570     3.3690 hn         1 3LW       0.446300
@<TRIPOS>BOND
     1     1     3 1
     2     1     9 1
     3     2     3 1
     4     3     4 2
     5     4     6 1
     6     4    19 1
     7     5     7 1
     8     5     8 1
     9     5    26 1
    10     5    39 1
    11     6     9 2
    12     6    20 1
    13     7     9 1
    14     7    21 1
    15     7    29 1
    16     8    10 1
    17     8    11 1
    18     8    12 1
    19    10    13 1
    20    10    22 1
    21    10    30 1
    22    11    14 1
    23    11    24 1
    24    11    31 1
    25    12    15 1
    26    12    27 1
    27    12    32 1
    28    13    16 1
    29    13    18 1
    30    13    33 1
    31    14    16 1
    32    14    17 1
    33    14    34 1
    34    15    17 1
    35    15    18 1
    36    15    35 1
    37    16    23 1
    38    16    36 1
    39    17    25 1
    40    17    37 1
    41    18    28 1
    42    18    38 1
@<TRIPOS>SUBSTRUCTURE
     1 3LW         1 TEMP              0 ****  ****    0 ROOT
