@<TRIPOS>MOLECULE
molecule
   40    39     1     0     0
SMALL
bcc


@<TRIPOS>ATOM
      1 C1           0.0000     0.0000     0.0000 cs         1 3LX       0.264200
      2 S1           1.5980     0.0000     0.0000 s          1 3LX      -0.335400
      3 C2          -0.7540     0.0000     1.3060 c3         1 3LX      -0.142400
      4 C3          -1.7250     1.1820     1.3330 c3         1 3LX      -0.078400
      5 C4          -2.4900     1.1810     2.6590 c3         1 3LX      -0.080400
      6 C5          -3.4610     2.3630     2.6860 c3         1 3LX      -0.082400
      7 C6          -4.2260     2.3640     4.0120 c3         1 3LX      -0.081400
      8 C7          -5.1980     3.5450     4.0390 c3         1 3LX      -0.081400
      9 C8          -5.9630     3.5450     5.3650 c3         1 3LX      -0.081400
     10 C9          -6.9340     4.7260     5.3920 c3         1 3LX      -0.082400
     11 C10         -7.7000     4.7270     6.7180 c3         1 3LX      -0.082400
     12 C11         -8.6700     5.9080     6.7460 c3         1 3LX      -0.081400
     13 C12         -9.4360     5.9080     8.0710 c3         1 3LX      -0.084400
     14 C13        -10.4070     7.0890     8.0990 c3         1 3LX      -0.092100
     15 H1          -0.5410    -0.0410    -0.9370 h4         1 3LX       0.040200
     16 H2          -0.0530     0.0890     2.1270 hc         1 3LX       0.071200
     17 H3          -1.3080    -0.9260     1.4030 hc         1 3LX       0.071200
     18 H4          -1.1700     2.1070     1.2360 hc         1 3LX       0.046700
     19 H5          -2.4250     1.0930     0.5110 hc         1 3LX       0.046700
     20 H6          -3.0450     0.2560     2.7550 hc         1 3LX       0.044700
     21 H7          -1.7900     1.2700     3.4800 hc         1 3LX       0.044700
     22 H8          -4.1620     2.2740     1.8650 hc         1 3LX       0.042700
     23 H9          -2.9070     3.2890     2.5880 hc         1 3LX       0.042700
     24 H10         -4.7810     1.4380     4.1090 hc         1 3LX       0.042200
     25 H11         -3.5250     2.4530     4.8330 hc         1 3LX       0.042200
     26 H12         -5.8980     3.4560     3.2180 hc         1 3LX       0.041700
     27 H13         -4.6430     4.4710     3.9420 hc         1 3LX       0.041700
     28 H14         -5.2630     3.6340     6.1860 hc         1 3LX       0.041200
     29 H15         -6.5170     2.6200     5.4620 hc         1 3LX       0.041200
     30 H16         -6.3800     5.6520     5.2950 hc         1 3LX       0.041200
     31 H17         -7.6350     4.6370     4.5710 hc         1 3LX       0.041200
     32 H18         -6.9990     4.8150     7.5390 hc         1 3LX       0.040700
     33 H19         -8.2550     3.8010     6.8140 hc         1 3LX       0.040700
     34 H20         -9.3710     5.8200     5.9240 hc         1 3LX       0.040700
     35 H21         -8.1150     6.8340     6.6490 hc         1 3LX       0.040700
     36 H22         -9.9900     4.9830     8.1680 hc         1 3LX       0.039700
     37 H23         -8.7350     5.9980     8.8930 hc         1 3LX       0.039700
     38 H24        -10.9490     7.0900     9.0370 hc         1 3LX       0.032367
     39 H25        -11.1080     7.0000     7.2770 hc         1 3LX       0.032367
     40 H26         -9.8530     8.0150     8.0020 hc         1 3LX       0.032367
@<TRIPOS>BOND
     1    14    13 1   
     2    13    12 1   
     3    12    11 1   
     4    11    10 1   
     5    10     9 1   
     6     9     8 1   
     7     7     8 1   
     8     7     6 1   
     9     3     4 1   
    10     3     1 1   
    11     5     6 1   
    12     5     4 1   
    13     1     2 2   
    14     1    15 1   
    15     3    16 1   
    16     3    17 1   
    17     4    18 1   
    18     4    19 1   
    19     5    20 1   
    20     5    21 1   
    21     6    22 1   
    22     6    23 1   
    23     7    24 1   
    24     7    25 1   
    25     8    26 1   
    26     8    27 1   
    27     9    28 1   
    28     9    29 1   
    29    10    30 1   
    30    10    31 1   
    31    11    32 1   
    32    11    33 1   
    33    12    34 1   
    34    12    35 1   
    35    13    36 1   
    36    13    37 1   
    37    14    38 1   
    38    14    39 1   
    39    14    40 1   
@<TRIPOS>SUBSTRUCTURE
     1 3LX         1 TEMP              0 ****  ****    0 ROOT
