@<TRIPOS>MOLECULE
3LX
   40    39     1     0     0
SMALL
bcc


@<TRIPOS>ATOM
      1 C1          0.0190   -0.0260    0.0290 c         1 3LX      0.216200
      2 S1          1.5210   -0.2190   -0.1470 s         1 3LX     -0.255400
      3 C2         -0.7270    0.0260    1.3120 c3        1 3LX     -0.152400
      4 C3         -1.7060    1.1840    1.3470 c3        1 3LX     -0.075400
      5 C4         -2.4710    1.2040    2.6540 c3        1 3LX     -0.079400
      6 C5         -3.4470    2.3600    2.6970 c3        1 3LX     -0.079400
      7 C6         -4.2140    2.3810    4.0020 c3        1 3LX     -0.079400
      8 C7         -5.1900    3.5380    4.0460 c3        1 3LX     -0.079400
      9 C8         -5.9570    3.5590    5.3510 c3        1 3LX     -0.079400
     10 C9         -6.9320    4.7160    5.3960 c3        1 3LX     -0.079400
     11 C10        -7.7000    4.7370    6.7000 c3        1 3LX     -0.079400
     12 C11        -8.6740    5.8940    6.7460 c3        1 3LX     -0.079400
     13 C12        -9.4430    5.9170    8.0500 c3        1 3LX     -0.080400
     14 C13       -10.4140    7.0680    8.1000 c3        1 3LX     -0.092100
     15 H1         -0.6690    0.0870   -0.8360 h4        1 3LX      0.024200
     16 H2         -0.0190    0.1020    2.1800 hc        1 3LX      0.069700
     17 H3         -1.2930   -0.9410    1.4310 hc        1 3LX      0.069700
     18 H4         -2.4260    1.0990    0.4910 hc        1 3LX      0.045200
     19 H5         -1.1510    2.1500    1.2220 hc        1 3LX      0.045200
     20 H6         -1.7510    1.2870    3.5100 hc        1 3LX      0.042200
     21 H7         -3.0260    0.2370    2.7800 hc        1 3LX      0.042200
     22 H8         -2.8920    3.3270    2.5710 hc        1 3LX      0.041200
     23 H9         -4.1670    2.2780    1.8390 hc        1 3LX      0.041200
     24 H10        -3.4950    2.4630    4.8590 hc        1 3LX      0.040200
     25 H11        -4.7700    1.4150    4.1280 hc        1 3LX      0.040200
     26 H12        -5.9090    3.4570    3.1880 hc        1 3LX      0.040200
     27 H13        -4.6340    4.5040    3.9210 hc        1 3LX      0.040200
     28 H14        -5.2380    3.6390    6.2080 hc        1 3LX      0.039700
     29 H15        -6.5140    2.5930    5.4750 hc        1 3LX      0.039700
     30 H16        -6.3750    5.6820    5.2720 hc        1 3LX      0.039700
     31 H17        -7.6510    4.6360    4.5380 hc        1 3LX      0.039700
     32 H18        -8.2570    3.7710    6.8240 hc        1 3LX      0.039700
     33 H19        -6.9810    4.8160    7.5580 hc        1 3LX      0.039700
     34 H20        -8.1170    6.8610    6.6220 hc        1 3LX      0.039700
     35 H21        -9.3930    5.8160    5.8880 hc        1 3LX      0.039700
     36 H22        -9.9990    4.9490    8.1720 hc        1 3LX      0.038700
     37 H23        -8.7230    5.9930    8.9070 hc        1 3LX      0.038700
     38 H24       -10.9700    7.0650    9.0690 hc        1 3LX      0.032700
     39 H25        -9.8760    8.0420    8.0050 hc        1 3LX      0.032700
     40 H26       -11.1550    6.9950    7.2680 hc        1 3LX      0.032700
@<TRIPOS>BOND
     1    1    2 2   
     2    1    3 1   
     3    1   15 1   
     4    3    4 1   
     5    3   16 1   
     6    3   17 1   
     7    4    5 1   
     8    4   18 1   
     9    4   19 1   
    10    5    6 1   
    11    5   20 1   
    12    5   21 1   
    13    6    7 1   
    14    6   22 1   
    15    6   23 1   
    16    7    8 1   
    17    7   24 1   
    18    7   25 1   
    19    8    9 1   
    20    8   26 1   
    21    8   27 1   
    22    9   10 1   
    23    9   28 1   
    24    9   29 1   
    25   10   11 1   
    26   10   30 1   
    27   10   31 1   
    28   11   12 1   
    29   11   32 1   
    30   11   33 1   
    31   12   13 1   
    32   12   34 1   
    33   12   35 1   
    34   13   14 1   
    35   13   36 1   
    36   13   37 1   
    37   14   38 1   
    38   14   39 1   
    39   14   40 1   
@<TRIPOS>SUBSTRUCTURE
     1 3LX         1 TEMP              0 ****  ****    0 ROOT
