@<TRIPOS>MOLECULE
molecule
   46    48     1     0     0
SMALL
bcc


@<TRIPOS>ATOM
      1 C18          0.0000     0.0000     0.0000 ca         1 3LZ      -0.223300
      2 N5           5.0360     0.9770    -1.7790 nb         1 3LZ      -0.679000
      3 C14          9.7120    -3.4600    -0.1980 ca         1 3LZ      -0.263300
      4 C13          9.2270    -4.4940    -0.9890 ca         1 3LZ      -0.081000
      5 C12          8.0080    -4.3260    -1.6190 ca         1 3LZ      -0.234300
      6 C17          1.3850     0.0000     0.0000 ca         1 3LZ      -0.168000
      7 C15          8.9700    -2.3030    -0.0670 ca         1 3LZ       0.432200
      8 C11          7.3120    -3.1330    -1.4430 ca         1 3LZ       0.522600
      9 C22          2.0010    -0.0020     3.7280 c3         1 3LZ      -0.124700
     10 C6           5.4500    -0.1790    -2.2620 ca         1 3LZ       0.516200
     11 C1           5.2010    -1.3630    -1.5830 ca         1 3LZ      -0.160400
     12 C4           4.3740     1.0570    -0.6370 ca         1 3LZ       0.594200
     13 C19         -0.6760     0.0050     1.2070 ca         1 3LZ       0.389200
     14 C21          1.2990    -0.0010     2.3940 ca         1 3LZ       0.409600
     15 C2           4.5070    -1.3230    -0.3760 ca         1 3LZ      -0.014000
     16 C3           4.0860    -0.0900     0.1020 ca         1 3LZ      -0.099200
     17 O8           3.4050    -0.0010     1.2750 os         1 3LZ      -0.235200
     18 C9           2.0460     0.0000     1.2250 ca         1 3LZ      -0.005200
     19 S10          5.7580    -2.9020    -2.2400 ss         1 3LZ      -0.264200
     20 N16          7.8120    -2.1680    -0.6850 nb         1 3LZ      -0.697000
     21 N20         -0.0180     0.0090     2.3500 nb         1 3LZ      -0.661000
     22 C23          2.2390     1.4400     4.1800 c3         1 3LZ      -0.087100
     23 C24          4.2300     3.4190    -0.8760 c          1 3LZ       0.768100
     24 O25          4.8400     3.3370    -1.9240 o          1 3LZ      -0.583100
     25 N26          3.8280     4.6230    -0.4220 ns         1 3LZ      -0.605900
     26 C27          4.1260     5.8320    -1.1920 c3         1 3LZ       0.121300
     27 H1          -0.5480    -0.0020    -0.9350 ha         1 3LZ       0.142000
     28 H3           9.7900    -5.4120    -1.1080 ha         1 3LZ       0.140000
     29 H4           7.5990    -5.1120    -2.2430 ha         1 3LZ       0.145000
     30 H5           1.9400    -0.0020    -0.9300 ha         1 3LZ       0.153000
     31 H6           9.3460    -1.4930     0.5460 h4         1 3LZ       0.026100
     32 H7           2.9520    -0.5120     3.6350 hc         1 3LZ       0.063200
     33 H8           1.3870    -0.5130     4.4590 hc         1 3LZ       0.063200
     34 H9           5.9900    -0.2040    -3.2010 h4         1 3LZ       0.046100
     35 H10         -1.7590     0.0090     1.2130 h4         1 3LZ       0.026100
     36 H11          4.2990    -2.2320     0.1760 ha         1 3LZ       0.163000
     37 H13          2.4100     1.4590     5.2490 hc         1 3LZ       0.036367
     38 H14          1.3690     2.0410     3.9430 hc         1 3LZ       0.036367
     39 H15          3.1050     1.8410     3.6680 hc         1 3LZ       0.036367
     40 H16          3.3120     4.6890     0.4340 hn         1 3LZ       0.306500
     41 H17          5.1920     5.8910    -1.3740 h1         1 3LZ       0.043367
     42 H18          3.8060     6.7040    -0.6340 h1         1 3LZ       0.043367
     43 H19          3.5990     5.7970    -2.1380 h1         1 3LZ       0.043367
     44 N7           3.9560     2.3060    -0.1660 ns         1 3LZ      -0.557400
     45 H2          10.6630    -3.5610     0.3110 ha         1 3LZ       0.139000
     46 H12          3.5000     2.3780     0.7220 hn         1 3LZ       0.335500
@<TRIPOS>BOND
     1    24    23 2
     2    23    44 1
     3    23    25 1
     4    26    25 1
     5    44    12 1
     6    13    21 ar
     7    13     1 ar
     8    21    14 ar
     9     1     6 ar
    10     9    14 1
    11     9    22 1
    12    14    18 ar
    13     6    18 ar
    14    18    17 1
    15    17    16 1
    16    12    16 ar
    17    12     2 ar
    18    16    15 ar
    19     2    10 ar
    20    15    11 ar
    21    10    11 ar
    22    11    19 1
    23     4     5 ar
    24     4     3 ar
    25     5     8 ar
    26     3     7 ar
    27     8    19 1
    28     8    20 ar
    29     7    20 ar
    30     1    27 1
    31     3    45 1
    32     4    28 1
    33     5    29 1
    34     6    30 1
    35     7    31 1
    36     9    32 1
    37     9    33 1
    38    10    34 1
    39    13    35 1
    40    15    36 1
    41    44    46 1
    42    22    37 1
    43    22    38 1
    44    22    39 1
    45    25    40 1
    46    26    41 1
    47    26    42 1
    48    26    43 1
@<TRIPOS>SUBSTRUCTURE
     1 3LZ         1 TEMP              0 ****  ****    0 ROOT
