@<TRIPOS>MOLECULE
3M0
   19    19     1     0     0
SMALL
bcc


@<TRIPOS>ATOM
      1 OAC          0.0000     0.0000     0.0000 o          1 3M0      -0.893300
      2 CAH          1.2140     0.0000     0.0000 c          1 3M0       0.995200
      3 OAD          1.8880     0.0000     1.1670 o          1 3M0      -0.893300
      4 CAK          1.9510    -0.0060    -1.2760 ca         1 3M0      -0.185600
      5 CAG          3.3430     0.1180    -1.2840 ca         1 3M0      -0.023000
      6 CAE          4.0260     0.1120    -2.4810 ca         1 3M0      -0.210000
      7 CAF          3.3400    -0.0180    -3.6790 ca         1 3M0      -0.078000
      8 CAI          1.9650    -0.1420    -3.6870 ca         1 3M0      -0.225300
      9 CAA          1.2300    -0.2830    -4.9940 c3         1 3M0       0.086200
     10 CAJ          1.2600    -0.1440    -2.4900 ca         1 3M0       0.093600
     11 NAB         -0.1230    -0.2690    -2.4960 nv         1 3M0      -0.480200
     12 H2           3.8850     0.2200    -0.3520 ha         1 3M0       0.121000
     13 H3           5.1050     0.2080    -2.4870 ha         1 3M0       0.083000
     14 H4           3.8860    -0.0220    -4.6140 ha         1 3M0       0.077000
     15 H5           0.5320     0.5380    -5.1060 hc         1 3M0      -0.010633
     16 H6           1.9410    -0.2660    -5.8120 hc         1 3M0      -0.010633
     17 H7           0.6890    -1.2210    -5.0050 hc         1 3M0      -0.010633
     18 H8          -0.6500     0.0350    -3.2900 hn         1 3M0       0.283300
     19 H9          -0.5900    -0.6940    -1.7190 hn         1 3M0       0.283300
@<TRIPOS>BOND
     1     1     2 1   
     2     2     3 1   
     3     2     4 1   
     4     4     5 ar  
     5     4    10 ar  
     6     5     6 ar  
     7     5    12 1   
     8     6     7 ar  
     9     6    13 1   
    10     7     8 ar  
    11     7    14 1   
    12     8     9 1   
    13     8    10 ar  
    14     9    15 1   
    15     9    16 1   
    16     9    17 1   
    17    10    11 1   
    18    11    18 1   
    19    11    19 1   
@<TRIPOS>SUBSTRUCTURE
     1 3M0         1 TEMP              0 ****  ****    0 ROOT
