@<TRIPOS>MOLECULE
molecule
   28    29     1     0     0
SMALL
bcc


@<TRIPOS>ATOM
      1 OAA          0.0000     0.0000     0.0000 o          1 3M1      -0.489100
      2 OAB          1.8230    -0.5340     5.9940 o          1 3M1      -0.191000
      3 OAD          4.0090    -0.2310     4.8570 oh         1 3M1      -0.483100
      4 OAE         -0.0000    -0.5650     4.9340 o          1 3M1      -0.191000
      5 FAF          2.4760    -2.2600    -1.1230 f          1 3M1      -0.131900
      6 CAG          3.3520     0.1760    -3.6670 ca         1 3M1      -0.086000
      7 CAH          2.7420     1.3150    -3.1670 ca         1 3M1      -0.144000
      8 CAI          3.2630    -1.0220    -2.9830 ca         1 3M1      -0.169000
      9 CAJ          2.0470     1.2650    -1.9790 ca         1 3M1      -0.067000
     10 CAK          3.3470     0.0560     1.2880 ca         1 3M1      -0.064000
     11 CAL          1.2600    -0.2290     2.4790 ca         1 3M1      -0.009000
     12 CAM          1.2170     0.0000     0.0000 c          1 3M1       0.597300
     13 CAN          4.0310     0.0000     2.4860 ca         1 3M1       0.044100
     14 CAO          2.5640    -1.0900    -1.7920 ca         1 3M1       0.156900
     15 CAP          3.3340    -0.1760     3.6800 ca         1 3M1       0.179100
     16 CAQ          1.9530    -0.0590     1.2770 ca         1 3M1      -0.178600
     17 CAR          1.9550     0.0600    -1.2760 ca         1 3M1      -0.202600
     18 CAS          1.9500    -0.2950     3.6700 ca         1 3M1      -0.185200
     19 NAT          1.2150    -0.4750     4.9410 no         1 3M1       0.298200
     20 HOAC         5.7760    -0.7130     2.2790 ho         1 3M1       0.434000
     21 HOAD         4.3530     0.6220     5.0630 ho         1 3M1       0.447000
     22 HAG          3.8990     0.2230    -4.6010 ha         1 3M1       0.143000
     23 HAH          2.8150     2.2490    -3.7110 ha         1 3M1       0.143000
     24 HAI          3.7420    -1.9090    -3.3800 ha         1 3M1       0.153000
     25 HAJ          1.5710     2.1570    -1.5910 ha         1 3M1       0.148000
     26 HAK          3.8880     0.1880     0.3590 ha         1 3M1       0.162000
     27 HAL          0.1800    -0.3200     2.4730 ha         1 3M1       0.192000
     28 OAC          5.3860     0.1170     2.5010 oh         1 3M1      -0.508100
@<TRIPOS>BOND
     1     1    12 2
     2     4    19 1
     3     5    14 1
     4     6     7 ar
     5     7     9 ar
     6     8     6 ar
     7     8    14 ar
     8    10    13 ar
     9    11    18 ar
    10    12    16 1
    11    13    28 1
    12    13    15 ar
    13    14    17 ar
    14    15     3 1
    15    16    10 ar
    16    16    11 ar
    17    17     9 ar
    18    17    12 1
    19    18    15 ar
    20    18    19 1
    21    19     2 1
    22    28    20 1
    23     3    21 1
    24     6    22 1
    25     7    23 1
    26     8    24 1
    27     9    25 1
    28    10    26 1
    29    11    27 1
@<TRIPOS>SUBSTRUCTURE
     1 3M1         1 TEMP              0 ****  ****    0 ROOT
