@<TRIPOS>MOLECULE
molecule
   28    29     1     0     0
SMALL
bcc


@<TRIPOS>ATOM
      1 CAA          0.0000     0.0000     0.0000 c3         1 3M2       0.204100
      2 NAB          2.6780    -0.0020    -1.3590 nz         1 3M2      -0.727600
      3 OAC          3.7090     0.0040     3.1450 o          1 3M2      -0.424100
      4 CAG          0.6740     0.0050     3.0240 ce         1 3M2       0.059800
      5 CAH         -1.2940     1.5030     2.7740 ca         1 3M2      -0.076000
      6 CAI         -1.5710    -0.8790     2.4220 ca         1 3M2      -0.076000
      7 NAJ          3.5160     0.0000     0.8620 nd         1 3M2      -0.655100
      8 CAK         -3.4440     0.6030     2.2030 ca         1 3M2       0.178100
      9 CAL         -0.7510     0.2130     2.7360 ca         1 3M2      -0.143800
     10 CAM         -2.6330     1.6910     2.5090 ca         1 3M2      -0.054900
     11 CAN         -2.9070    -0.6790     2.1520 ca         1 3M2      -0.054900
     12 CAO          2.5220     0.0000     0.0000 cc         1 3M2       0.654100
     13 CAP          3.0480     0.0020     2.1180 c          1 3M2       0.708700
     14 CAQ          1.5780     0.0030     2.0120 cd         1 3M2      -0.079200
     15 NAR          1.3200     0.0010     0.6360 na         1 3M2      -0.617400
     16 HAA         -0.5510     0.8800     0.3100 h1         1 3M2       0.072033
     17 HAAA         0.1180     0.0080    -1.0770 h1         1 3M2       0.072033
     18 HAAB        -0.5430    -0.8890     0.2970 h1         1 3M2       0.072033
     19 HNAB         2.2490     0.8150    -1.7450 hn         1 3M2       0.485800
     20 HNAA         3.6540    -0.0040    -1.5830 hn         1 3M2       0.485800
     21 HOAD        -5.2540     0.7300     2.7450 ho         1 3M2       0.451000
     22 HAG          1.0180     0.0050     4.0520 ha         1 3M2       0.199000
     23 HAH         -0.6800     2.3400     3.0830 ha         1 3M2       0.162000
     24 HAI         -1.1730    -1.8860     2.4680 ha         1 3M2       0.162000
     25 BrAE        -3.3690     3.4330     2.5590 br         1 3M2      -0.025100
     26 BrAF        -4.0130    -2.1500     1.7210 br         1 3M2      -0.025100
     27 HAB3         2.2770    -0.8370    -1.7400 hn         1 3M2       0.485800
     28 OAD         -4.7620     0.7950     1.9430 oh         1 3M2      -0.494100
@<TRIPOS>BOND
     1     1    15 1   
     2     1    16 1   
     3     1    17 1   
     4     1    18 1   
     5     2    12 1   
     6     2    19 1   
     7     2    20 1   
     8    13     3 2   
     9    28     8 1   
    10    28    21 1   
    11    25    10 1   
    12    11    26 1   
    13     9     4 1   
    14     4    14 2   
    15     4    22 1   
    16    10     5 ar  
    17     5     9 ar  
    18     5    23 1   
    19    11     6 ar  
    20     6     9 ar  
    21     6    24 1   
    22    12     7 2   
    23    13     7 1   
    24     8    10 ar  
    25     8    11 ar  
    26    15    12 1   
    27    14    13 1   
    28    15    14 1   
    29    27     2 1   
@<TRIPOS>SUBSTRUCTURE
     1 3M2         1 TEMP              0 ****  ****    0 ROOT
