@<TRIPOS>MOLECULE
3M2
   28    29     1     0     0
SMALL
bcc


@<TRIPOS>ATOM
      1 CAA          0.0000     0.0000     0.0000 c3         1 3M2       0.156100
      2 NAB          2.6780    -0.0020    -1.3590 nz         1 3M2       0.230400
      3 OAC          3.7090     0.0040     3.1450 o          1 3M2      -0.454100
      4 CAG          0.6740     0.0050     3.0240 ce         1 3M2       0.159800
      5 CAH         -1.2940     1.5030     2.7740 ca         1 3M2      -0.048000
      6 CAI         -1.5710    -0.8790     2.4220 ca         1 3M2      -0.048000
      7 NAJ          3.5160     0.0000     0.8620 nc         1 3M2      -0.543100
      8 CAK         -3.4440     0.6030     2.2030 ca         1 3M2       0.201100
      9 CAL         -0.7510     0.2130     2.7360 ca         1 3M2      -0.174800
     10 CAM         -2.6330     1.6910     2.5090 ca         1 3M2      -0.033400
     11 CAN         -2.9070    -0.6790     2.1520 ca         1 3M2      -0.033400
     12 CAO          2.5220     0.0000     0.0000 cd         1 3M2       0.216100
     13 CAP          3.0480     0.0020     2.1180 c          1 3M2       0.709700
     14 CAQ          1.5780     0.0030     2.0120 cd         1 3M2      -0.256200
     15 NAR          1.3200     0.0010     0.6360 na         1 3M2      -0.159400
     16 HAA          0.1180     0.0320    -1.0760 h1         1 3M2       0.042367
     17 HAAA        -0.5340    -0.9010     0.2780 h1         1 3M2       0.042367
     18 HAAB        -0.5600     0.8680     0.3280 h1         1 3M2       0.042367
     19 HNAB         2.2530     0.8170    -1.7450 hn         1 3M2       0.222800
     20 HNAA         2.2420    -0.8170    -1.7440 hn         1 3M2       0.222800
     21 HOAD        -5.2520     0.7460     2.7470 ho         1 3M2       0.430000
     22 HAG          1.0010    -0.1670     4.0430 ha         1 3M2       0.148000
     23 HAH         -0.6800     2.3400     3.0830 ha         1 3M2       0.129500
     24 HAI         -1.1730    -1.8860     2.4680 ha         1 3M2       0.129500
     25 BrAE        -3.3690     3.4330     2.5590 br         1 3M2      -0.040100
     26 BrAF        -4.0130    -2.1500     1.7210 br         1 3M2      -0.040100
     27 HAB3         3.6530     0.0270    -1.5830 hn         1 3M2       0.222800
     28 OAD         -4.7620     0.7950     1.9430 oh         1 3M2      -0.477100
@<TRIPOS>BOND
     1     1    15 1   
     2     1    16 1   
     3     1    17 1   
     4     1    18 1   
     5     2    12 1   
     6     2    19 1   
     7     2    20 1   
     8     2    27 1   
     9     3    13 2   
    10     4     9 1   
    11     4    14 2   
    12     4    22 1   
    13     5     9 ar  
    14     5    10 ar  
    15     5    23 1   
    16     6     9 ar  
    17     6    11 ar  
    18     6    24 1   
    19     7    12 2   
    20     7    13 1   
    21     8    10 ar  
    22     8    11 ar  
    23     8    28 1   
    24    10    25 1   
    25    11    26 1   
    26    12    15 1   
    27    13    14 1   
    28    14    15 1   
    29    21    28 1   
@<TRIPOS>SUBSTRUCTURE
     1 3M2         1 TEMP              0 ****  ****    0 ROOT
