@<TRIPOS>MOLECULE
3M3
   35    35     1     0     0
SMALL
bcc


@<TRIPOS>ATOM
      1 CAA         0.2110    0.4710   -0.0420 c3        1 3M3     -0.186000
      2 CAB         4.6050    0.5000   -2.0640 c3        1 3M3     -0.156000
      3 CAD        -1.8120    4.1610   -8.8800 c3        1 3M3     -0.225000
      4 CAE        -0.9160    0.3740   -6.7820 c1        1 3M3      0.234000
      5 CAF        -0.7870    4.5940   -7.9790 c1        1 3M3     -0.116000
      6 CAG        -0.8840    1.6590   -7.0910 c2        1 3M3     -0.481000
      7 CAH         1.1200    1.2740   -3.3610 c3        1 3M3     -0.157000
      8 CAI         0.4360    1.2080   -4.7160 c3        1 3M3     -0.043000
      9 CAJ         1.5130   -0.1220   -2.9120 c3        1 3M3     -0.100000
     10 NAK         2.4980   -0.2880    0.7430 n2        1 3M3     -0.043000
     11 NAL         3.5710    0.0050    0.2270 n2        1 3M3     -0.013000
     12 OAM         0.0820    2.5600   -5.0400 os        1 3M3     -0.184000
     13 CAN        -0.4170    4.1040   -6.7160 c2        1 3M3     -0.003000
     14 CAO         1.4040   -0.4250   -0.2890 c3        1 3M3     -0.117000
     15 CAP         3.4460    0.1480   -1.2320 c2        1 3M3     -0.123000
     16 CAQ        -0.4470    2.7770   -6.2900 c2        1 3M3      0.124000
     17 CAR         2.1480   -0.1040   -1.5900 c2        1 3M3     -0.152000
     18 HAA        -0.5360    0.3120   -0.8570 hc        1 3M3      0.089333
     19 HAAA        0.5070    1.5480   -0.0370 hc        1 3M3      0.089333
     20 HAAB       -0.2620    0.2250    0.9390 hc        1 3M3      0.089333
     21 HAB         5.0110    1.5000   -1.7650 hc        1 3M3      0.095333
     22 HABA        5.4210   -0.2570   -1.9420 hc        1 3M3      0.095333
     23 HABB        4.3060    0.5410   -3.1410 hc        1 3M3      0.095333
     24 HAD        -1.3270    3.8080   -9.8310 hc        1 3M3      0.103667
     25 HAE        -2.4150    5.0760   -9.1450 hc        1 3M3      0.103667
     26 HAF        -2.5270    3.3770   -8.5160 hc        1 3M3      0.103667
     27 HAG        -1.2400    1.9120   -8.1170 ha        1 3M3      0.218000
     28 HAH        -0.5020    0.5840   -4.6520 h1        1 3M3      0.093500
     29 HAHA        2.0270    1.9290   -3.4330 hc        1 3M3      0.111000
     30 HAI         0.4270    1.7420   -2.6130 hc        1 3M3      0.111000
     31 HAIA        1.1290    0.7940   -5.4970 h1        1 3M3      0.093500
     32 HAJ         0.5990   -0.7750   -2.8790 hc        1 3M3      0.095500
     33 HAJA        2.2200   -0.5690   -3.6640 hc        1 3M3      0.095500
     34 HNAK        1.0810   -1.5040   -0.2840 h1        1 3M3      0.144000
     35 FAC         0.1250    5.0110   -5.8520 f         1 3M3     -0.087000
@<TRIPOS>BOND
     1    1   14 1   
     2    1   18 1   
     3    1   19 1   
     4    1   20 1   
     5    2   15 1   
     6    2   21 1   
     7    2   22 1   
     8    2   23 1   
     9    3    5 1   
    10    3   24 1   
    11    3   25 1   
    12    3   26 1   
    13    4    6 1   
    14    5   13 1   
    15    6   16 1   
    16    6   27 1   
    17    7    8 1   
    18    7    9 1   
    19    7   29 1   
    20    7   30 1   
    21    8   12 1   
    22    8   28 1   
    23    8   31 1   
    24    9   17 1   
    25    9   32 1   
    26    9   33 1   
    27   10   11 1   
    28   10   14 1   
    29   11   15 1   
    30   12   16 1   
    31   13   16 1   
    32   13   35 1   
    33   14   17 1   
    34   14   34 1   
    35   15   17 1   
@<TRIPOS>SUBSTRUCTURE
     1 3M3         1 TEMP              0 ****  ****    0 ROOT
