@<TRIPOS>MOLECULE
molecule
   35    36     1     0     0
SMALL
bcc


@<TRIPOS>ATOM
      1 CAA          0.0000     0.0000     0.0000 c3         1 3M3      -0.028800
      2 CAB          4.5060     0.0140    -2.3730 c3         1 3M3      -0.111400
      3 CAD         -1.7410     3.3830    -8.6260 ca         1 3M3      -0.144000
      4 CAE         -1.4910     2.1030    -8.1680 ca         1 3M3      -0.105000
      5 CAF         -1.3480     4.4780    -7.8780 ca         1 3M3      -0.134000
      6 CAG         -0.8470     1.9130    -6.9600 ca         1 3M3      -0.201000
      7 CAH          1.1260     1.4660    -3.2540 c3         1 3M3      -0.078400
      8 CAI          0.4070     1.4720    -4.6050 c3         1 3M3       0.135400
      9 CAJ          1.3680     0.0200    -2.8140 c3         1 3M3       0.007900
     10 NAK          2.4590     0.0000     0.6660 na         1 3M3      -0.041600
     11 NAL          3.6910     0.0000     0.0000 nc         1 3M3      -0.512800
     12 OAM          0.1820     2.8230    -5.0170 os         1 3M3      -0.318900
     13 CAN         -0.7040     4.2930    -6.6680 ca         1 3M3       0.104900
     14 CAO          1.4830     0.0050    -0.2660 cc         1 3M3      -0.063600
     15 CAP          3.4600     0.0100    -1.2880 cd         1 3M3       0.351600
     16 CAQ         -0.4510     3.0080    -6.2060 ca         1 3M3       0.109100
     17 CAR          2.0760     0.0130    -1.4830 cd         1 3M3      -0.308600
     18 HAA         -0.1760    -0.1170     1.0620 hc         1 3M3       0.051367
     19 HAAA        -0.4300     0.9360    -0.3360 hc         1 3M3       0.051367
     20 HAAB        -0.4600    -0.8220    -0.5350 hc         1 3M3       0.051367
     21 HAB          4.4480     0.9430    -2.9270 hc         1 3M3       0.050033
     22 HABA         4.3330    -0.8180    -3.0450 hc         1 3M3       0.050033
     23 HABB         5.4890    -0.0800    -1.9280 hc         1 3M3       0.050033
     24 HAD         -2.2450     3.5290    -9.5740 ha         1 3M3       0.136000
     25 HAE         -1.8000     1.2480    -8.7560 ha         1 3M3       0.134000
     26 HAF         -1.5450     5.4800    -8.2390 ha         1 3M3       0.149000
     27 HAG         -0.6520     0.9090    -6.6020 ha         1 3M3       0.141000
     28 HAH          2.0760     1.9780    -3.3480 hc         1 3M3       0.059700
     29 HAHA         0.5150     1.9710    -2.5170 hc         1 3M3       0.059700
     30 HAI         -0.5430     0.9600    -4.5110 h1         1 3M3       0.034200
     31 HAIA         1.0190     0.9670    -5.3430 h1         1 3M3       0.034200
     32 HAJ          1.9800    -0.4850    -3.5510 hc         1 3M3       0.043700
     33 HAJA         0.4180    -0.4920    -2.7200 hc         1 3M3       0.043700
     34 HNAK         2.3260    -0.0060     1.6580 hn         1 3M3       0.328700
     35 FAC         -0.3200     5.3620    -5.9360 f          1 3M3      -0.131900
@<TRIPOS>BOND
     1     1    14 1
     2     1    18 1
     3     1    19 1
     4     1    20 1
     5     2    15 1
     6     2    21 1
     7     2    22 1
     8     2    23 1
     9    13    35 1
    10     3     4 ar
    11     3     5 ar
    12     3    24 1
    13     4     6 ar
    14     4    25 1
    15     5    13 ar
    16     5    26 1
    17     6    16 ar
    18     6    27 1
    19     8     7 1
    20     7     9 1
    21     7    28 1
    22     7    29 1
    23    12     8 1
    24     8    30 1
    25     8    31 1
    26     9    17 1
    27     9    32 1
    28     9    33 1
    29    14    10 1
    30    11    10 1
    31    15    11 2
    32    16    12 1
    33    13    16 ar
    34    17    14 2
    35    17    15 1
    36    10    34 1
@<TRIPOS>SUBSTRUCTURE
     1 3M3         1 TEMP              0 ****  ****    0 ROOT
