@<TRIPOS>MOLECULE
3M4
   33    35     1     0     0
SMALL
bcc


@<TRIPOS>ATOM
      1 CAA        -0.0430    0.0020    0.3260 c3        1 3M4     -0.101100
      2 CAB         5.6060   -0.0040    0.8660 ca        1 3M4     -0.061000
      3 CAC         6.0850   -0.0020    2.1770 ca        1 3M4     -0.180000
      4 CAD         0.0600    0.0130    9.3590 ca        1 3M4      0.383700
      5 CAE         2.3220    0.0280    9.7640 ca        1 3M4      0.383700
      6 CAF         4.2370   -0.0030    0.6140 ca        1 3M4     -0.221000
      7 CAG         5.1940    0.0020    3.2450 ca        1 3M4     -0.044000
      8 CAH         0.2520    0.0090    7.9650 ca        1 3M4     -0.211300
      9 CAI         2.6270    0.0250    8.3910 ca        1 3M4     -0.211300
     10 CAJ         1.4630   -0.0010    0.1980 c3        1 3M4      0.128400
     11 NAK         1.0670    0.0220   10.2530 nb        1 3M4     -0.654000
     12 NAL         0.8740    0.0100    5.0530 nc        1 3M4     -0.368300
     13 NAM         3.1260    0.0090    5.4670 nd        1 3M4     -0.693000
     14 OAN         1.9670    0.0010    1.5440 os        1 3M4     -0.308900
     15 OAO         1.4970    0.0070    3.9040 os        1 3M4     -0.103100
     16 CAP         1.5660    0.0150    7.4730 ca        1 3M4     -0.086500
     17 CAQ         3.3320    0.0000    1.6860 ca        1 3M4      0.180100
     18 CAR         1.8200    0.0110    6.0350 cd        1 3M4      0.575500
     19 CAS         3.8090    0.0030    3.0190 ca        1 3M4     -0.193500
     20 CAT         2.9070    0.0060    4.1480 cc        1 3M4      0.581900
     21 HAA        -0.3860    0.9070    0.8820 hc        1 3M4      0.054033
     22 HAAA       -0.3890   -0.9020    0.8830 hc        1 3M4      0.054033
     23 HAAB       -0.4940    0.0010   -0.6950 hc        1 3M4      0.054033
     24 HAB         6.3130   -0.0070    0.0230 ha        1 3M4      0.139000
     25 HAC         7.1680   -0.0020    2.3670 ha        1 3M4      0.143000
     26 HAE         3.1310    0.0360   10.5170 h4        1 3M4      0.025100
     27 HAF         3.8760   -0.0050   -0.4240 ha        1 3M4      0.145000
     28 HAG         5.5770    0.0030    4.2790 ha        1 3M4      0.159000
     29 HAH        -0.6160    0.0010    7.2910 ha        1 3M4      0.162000
     30 HAI         3.6740    0.0300    8.0600 ha        1 3M4      0.162000
     31 HAJ         1.8290    0.9160   -0.3350 h1        1 3M4      0.040700
     32 HAJA        1.8260   -0.9190   -0.3320 h1        1 3M4      0.040700
     33 HAD        -0.9600    0.0080    9.7830 h4        1 3M4      0.025100
@<TRIPOS>BOND
     1    1   10 1   
     2    1   21 1   
     3    1   22 1   
     4    1   23 1   
     5    2    3 ar  
     6    2    6 ar  
     7    2   24 1   
     8    3    7 ar  
     9    3   25 1   
    10    4    8 ar  
    11    4   11 ar  
    12    4   33 1   
    13    5    9 ar  
    14    5   11 ar  
    15    5   26 1   
    16    6   17 ar  
    17    6   27 1   
    18    7   19 ar  
    19    7   28 1   
    20    8   16 ar  
    21    8   29 1   
    22    9   16 ar  
    23    9   30 1   
    24   10   14 1   
    25   10   31 1   
    26   10   32 1   
    27   12   15 1   
    28   12   18 2   
    29   13   18 1   
    30   13   20 2   
    31   14   17 1   
    32   15   20 1   
    33   16   18 1   
    34   17   19 ar  
    35   19   20 1   
@<TRIPOS>SUBSTRUCTURE
     1 3M4         1 TEMP              0 ****  ****    0 ROOT
