@<TRIPOS>MOLECULE
molecule
   42    42     1     0     0
SMALL
bcc


@<TRIPOS>ATOM
      1 CA           0.0000     0.0000     0.0000 c3         1 3M5       0.007700
      2 CB           1.5450     0.0000     0.0000 c3         1 3M5      -0.134400
      3 C           -0.3830     0.0090     1.4650 c          1 3M5       0.715600
      4 O           -1.4500     0.3510     1.9180 o          1 3M5      -0.525500
      5 OAC          0.6720    -0.4320     2.1760 os         1 3M5      -0.408900
      6 CAB          1.8920     0.0000     1.5040 c3         1 3M5       0.135400
      7 N           -0.5120     1.1990    -0.6690 ns         1 3M5      -0.583900
      8 CAG         -1.7370     1.1880    -1.2280 c          1 3M5       0.657100
      9 OAL         -2.4180     0.1850    -1.1780 o          1 3M5      -0.544100
     10 CAH         -2.2630     2.4220    -1.9160 c3         1 3M5      -0.259400
     11 CAI         -3.6450     2.1480    -2.4510 c          1 3M5       0.552100
     12 OAM         -4.1510     1.0630    -2.2900 o          1 3M5      -0.459100
     13 CAJ         -4.3960     3.2270    -3.1860 c3         1 3M5      -0.178400
     14 CAN         -5.7620     2.6940    -3.6210 c3         1 3M5      -0.072400
     15 CAO         -6.5250     3.7900    -4.3670 c3         1 3M5      -0.083400
     16 CAP         -7.8910     3.2560    -4.8020 c3         1 3M5      -0.081400
     17 CAQ         -8.6540     4.3530    -5.5480 c3         1 3M5      -0.082400
     18 CAR        -10.0200     3.8180    -5.9820 c3         1 3M5      -0.084400
     19 CAS        -10.7830     4.9150    -6.7290 c3         1 3M5      -0.092100
     20 H1          -0.3750    -0.8960    -0.4800 h1         1 3M5       0.119700
     21 H2           1.9260     0.8930    -0.4800 hc         1 3M5       0.068700
     22 H3           1.9260    -0.8930    -0.4800 hc         1 3M5       0.068700
     23 H4           2.6970    -0.6980     1.7020 h1         1 3M5       0.065700
     24 H5           2.1640     0.9980     1.8260 h1         1 3M5       0.065700
     25 H6           0.0510     2.0260    -0.7130 hn         1 3M5       0.313500
     26 H7          -1.6050     2.6870    -2.7350 hc         1 3M5       0.079200
     27 H8          -2.3060     3.2400    -1.2080 hc         1 3M5       0.079200
     28 H9          -4.5330     4.0810    -2.5330 hc         1 3M5       0.060700
     29 H10         -3.8310     3.5290    -4.0600 hc         1 3M5       0.060700
     30 H11         -5.6250     1.8400    -4.2740 hc         1 3M5       0.057700
     31 H12         -6.3270     2.3920    -2.7470 hc         1 3M5       0.057700
     32 H13         -6.6630     4.6430    -3.7140 hc         1 3M5       0.038200
     33 H14         -5.9610     4.0910    -5.2420 hc         1 3M5       0.038200
     34 H15         -7.7540     2.4020    -5.4550 hc         1 3M5       0.044200
     35 H16         -8.4560     2.9540    -3.9280 hc         1 3M5       0.044200
     36 H17         -8.0890     4.6540    -6.4230 hc         1 3M5       0.040200
     37 H18         -8.7900     5.2060    -4.8950 hc         1 3M5       0.040200
     38 H19         -9.8830     2.9650    -6.6350 hc         1 3M5       0.041200
     39 H20        -10.5840     3.5180    -5.1070 hc         1 3M5       0.041200
     40 H21        -10.9190     5.7690    -6.0760 hc         1 3M5       0.032367
     41 H22        -10.2180     5.2150    -7.6030 hc         1 3M5       0.032367
     42 H23        -11.7500     4.5370    -7.0360 hc         1 3M5       0.032367
@<TRIPOS>BOND
     1     4     3 2   
     2     3     5 1   
     3     3     1 1   
     4     5     6 1   
     5     1     2 1   
     6     1     7 1   
     7     2     6 1   
     8     7     8 1   
     9     9     8 2   
    10     8    10 1   
    11    12    11 2   
    12    10    11 1   
    13    11    13 1   
    14    13    14 1   
    15    14    15 1   
    16    17    18 1   
    17    17    16 1   
    18    15    16 1   
    19    19    18 1   
    20     1    20 1   
    21     2    21 1   
    22     2    22 1   
    23     6    23 1   
    24     6    24 1   
    25     7    25 1   
    26    10    26 1   
    27    10    27 1   
    28    13    28 1   
    29    13    29 1   
    30    14    30 1   
    31    14    31 1   
    32    15    32 1   
    33    15    33 1   
    34    16    34 1   
    35    16    35 1   
    36    17    36 1   
    37    17    37 1   
    38    18    38 1   
    39    18    39 1   
    40    19    40 1   
    41    19    41 1   
    42    19    42 1   
@<TRIPOS>SUBSTRUCTURE
     1 3M5         1 TEMP              0 ****  ****    0 ROOT
