@<TRIPOS>MOLECULE
molecule
   24    24     1     0     0
SMALL
bcc


@<TRIPOS>ATOM
      1 OAQ          0.0000     0.0000     0.0000 o          1 3M8      -0.695533
      2 SAN          1.5230     0.0000     0.0000 s6         1 3M8       1.244800
      3 OAO          1.8720     0.0000     1.3770 o          1 3M8      -0.695533
      4 OAP          1.8720    -1.0870    -0.8450 o          1 3M8      -0.695533
      5 CAM          1.9750     1.5780    -0.7710 c3         1 3M8      -0.239600
      6 CAL          3.4990     1.6980    -0.8300 c3         1 3M8       0.026700
      7 SAK          3.9520     3.2770    -1.6020 ss         1 3M8      -0.216000
      8 CAB          5.7130     3.2370    -1.5820 ca         1 3M8       0.110900
      9 CAC          6.3780     2.1440    -1.0480 ca         1 3M8      -0.198000
     10 CAD          7.7650     2.1130    -1.0330 ca         1 3M8       0.170100
     11 OAI          8.4110     1.0410    -0.5090 oh         1 3M8      -0.519100
     12 CAE          8.4960     3.1750    -1.5530 ca         1 3M8      -0.235000
     13 CAF          7.8490     4.2700    -2.0880 ca         1 3M8       0.192900
     14 FAH          8.5650     5.2990    -2.5920 f          1 3M8      -0.134900
     15 CAA          6.4500     4.3100    -2.1140 ca         1 3M8      -0.077000
     16 CAG          5.7720     5.4430    -2.6680 cg         1 3M8       0.255800
     17 NAJ          5.2260     6.3310    -3.1210 n1         1 3M8      -0.365800
     18 H1           1.5470     1.6300    -1.7650 h1         1 3M8       0.089200
     19 H2           1.5930     2.3960    -0.1710 h1         1 3M8       0.089200
     20 H3           3.9350     1.1890     0.0210 h1         1 3M8       0.073200
     21 H4           3.8610     1.2470    -1.7460 h1         1 3M8       0.073200
     22 H5           5.8160     1.3340    -0.6000 ha         1 3M8       0.167000
     23 H6           8.5670     0.4050    -1.1870 ho         1 3M8       0.427000
     24 H7           9.5790     3.1550    -1.5220 ha         1 3M8       0.151000
@<TRIPOS>BOND
     1    17    16 3   
     2    16    15 1   
     3    14    13 1   
     4    15    13 ar  
     5    15     8 ar  
     6    13    12 ar  
     7     7     8 1   
     8     7     6 1   
     9     8     9 ar  
    10    12    10 ar  
    11     9    10 ar  
    12    10    11 1   
    13     6     5 1   
    14     5     2 1   
    15     2     4 1   
    16     2     3 1   
    17     2     1 1   
    18     5    18 1   
    19     5    19 1   
    20     6    20 1   
    21     6    21 1   
    22     9    22 1   
    23    11    23 1   
    24    12    24 1   
@<TRIPOS>SUBSTRUCTURE
     1 3M8         1 TEMP              0 ****  ****    0 ROOT
