@<TRIPOS>MOLECULE
molecule
   55    58     1     0     0
SMALL
bcc


@<TRIPOS>ATOM
      1 C01          1.4650     0.0000     0.0000 c3         1 3M9       0.084000
      2 N02          0.0000     0.0000     0.0000 na         1 3M9       0.135400
      3 C09         -0.7930    -0.9520    -0.5440 cc         1 3M9      -0.271900
      4 C10         -2.0670    -0.5560    -0.3180 cd         1 3M9       0.287200
      5 N11         -1.9920     0.6030     0.3450 nd         1 3M9      -0.364000
      6 N12         -0.7550     0.9030     0.5230 nc         1 3M9      -0.207800
      7 C23         -0.3460    -2.2010    -1.2590 c3         1 3M9       0.190300
      8 N24         -0.0870    -1.8930    -2.6670 ns         1 3M9      -0.591900
      9 C25          0.3270    -2.8650    -3.5060 c          1 3M9       0.676700
     10 C26          0.5880    -2.5530    -4.9250 ca         1 3M9      -0.164600
     11 O27          0.4830    -3.9960    -3.0930 o          1 3M9      -0.599100
     12 C28          0.4130    -1.2510    -5.4010 ca         1 3M9      -0.060500
     13 C29          0.6640    -0.9650    -6.7250 ca         1 3M9      -0.177500
     14 C30          1.0890    -1.9660    -7.5860 ca         1 3M9       0.157900
     15 C31          1.2630    -3.2600    -7.1190 ca         1 3M9      -0.177500
     16 C32          1.0160    -3.5570    -5.7960 ca         1 3M9      -0.060500
     17 F33          1.3330    -1.6800    -8.8840 f          1 3M9      -0.134900
     18 C03          1.9750     0.0000     1.4430 c3         1 3M9      -0.051100
     19 C13          1.5830    -1.2920     2.1140 ca         1 3M9      -0.100300
     20 C14          2.3710    -2.3910     1.9630 ca         1 3M9      -0.106000
     21 C15          2.0070    -3.5970     2.5870 ca         1 3M9      -0.038000
     22 C16          0.8230    -3.6480     3.3650 ca         1 3M9      -0.034000
     23 C17          0.0360    -2.4920     3.4970 ca         1 3M9      -0.115000
     24 C18          0.4220    -1.3400     2.8830 ca         1 3M9      -0.121000
     25 C19          2.7960    -4.7540     2.4570 ca         1 3M9      -0.111000
     26 C20          2.4130    -5.9030     3.0760 ca         1 3M9      -0.126000
     27 C21          1.2500    -5.9530     3.8400 ca         1 3M9      -0.123000
     28 C22          0.4610    -4.8530     3.9900 ca         1 3M9      -0.118000
     29 C04          1.9750     1.2490    -0.7200 c3         1 3M9      -0.165400
     30 C05          3.4730     1.1710    -0.8640 c          1 3M9       0.673100
     31 N06          4.1580     2.2150    -1.3710 ns         1 3M9      -0.467400
     32 O07          4.0630     0.1670    -0.5240 o          1 3M9      -0.579100
     33 O08          5.5650     2.1410    -1.5050 oh         1 3M9      -0.357100
     34 H1           1.8260    -0.8840    -0.5110 h1         1 3M9       0.106700
     35 H2          -2.9700    -1.0750    -0.6170 h4         1 3M9       0.057100
     36 H3           0.5600    -2.5760    -0.7990 h1         1 3M9       0.075200
     37 H4          -1.1230    -2.9530    -1.1920 h1         1 3M9       0.075200
     38 H5          -0.2530    -0.9690    -3.0160 hn         1 3M9       0.316500
     39 H6           0.0810    -0.4680    -4.7300 ha         1 3M9       0.147500
     40 H7           0.5290     0.0450    -7.0950 ha         1 3M9       0.150500
     41 H8           1.5950    -4.0390    -7.7950 ha         1 3M9       0.150500
     42 H9           1.1520    -4.5680    -5.4320 ha         1 3M9       0.147500
     43 H10          3.0540     0.0950     1.4450 hc         1 3M9       0.079700
     44 H11          1.5380     0.8330     1.9800 hc         1 3M9       0.079700
     45 H12          3.3320    -2.3050     1.4700 ha         1 3M9       0.146000
     46 H13         -0.8690    -2.5150     4.0920 ha         1 3M9       0.135000
     47 H14         -0.1790    -0.4460     3.0000 ha         1 3M9       0.139000
     48 H15          3.7040    -4.7300     1.8660 ha         1 3M9       0.136000
     49 H16          3.0230    -6.7930     2.9730 ha         1 3M9       0.129000
     50 H17          0.9680    -6.8810     4.3220 ha         1 3M9       0.128000
     51 H18         -0.4410    -4.9080     4.5870 ha         1 3M9       0.132000
     52 H19          1.7130     2.1300    -0.1460 hc         1 3M9       0.078700
     53 H20          1.5210     1.3110    -1.7020 hc         1 3M9       0.078700
     54 H21          3.6690     3.0330    -1.6780 hn         1 3M9       0.323500
     55 H22          5.8980     2.9730    -1.7970 ho         1 3M9       0.403000
@<TRIPOS>BOND
     1    17    14 1
     2    13    14 ar
     3    13    12 ar
     4    14    15 ar
     5    12    10 ar
     6    15    16 ar
     7    11     9 2
     8    10    16 ar
     9    10     9 1
    10     9     8 1
    11     8     7 1
    12    28    27 ar
    13    28    22 ar
    14    27    26 ar
    15     7     3 1
    16    23    22 ar
    17    23    24 ar
    18    22    21 ar
    19    24    19 ar
    20    26    25 ar
    21     3     4 2
    22     3     2 1
    23     4     5 1
    24    21    25 ar
    25    21    20 ar
    26    19    20 ar
    27    19    18 1
    28     2     1 1
    29     2     6 1
    30     5     6 2
    31     1    18 1
    32     1    29 1
    33    29    30 1
    34    30    31 1
    35    30    32 2
    36    31    33 1
    37     1    34 1
    38     4    35 1
    39     7    36 1
    40     7    37 1
    41     8    38 1
    42    12    39 1
    43    13    40 1
    44    15    41 1
    45    16    42 1
    46    18    43 1
    47    18    44 1
    48    20    45 1
    49    23    46 1
    50    24    47 1
    51    25    48 1
    52    26    49 1
    53    27    50 1
    54    28    51 1
    55    29    52 1
    56    29    53 1
    57    31    54 1
    58    33    55 1
@<TRIPOS>SUBSTRUCTURE
     1 3M9         1 TEMP              0 ****  ****    0 ROOT
