@<TRIPOS>MOLECULE
3MA
   19    20     1     0     0
SMALL
bcc


@<TRIPOS>ATOM
      1 N9           0.0000     0.0000     0.0000 na         1 3MA       0.275500
      2 C4           1.3720     0.0000     0.0000 cc         1 3MA      -0.403300
      3 N3           2.3100     0.0000     0.9420 na         1 3MA       0.461100
      4 CN3          1.9210    -0.0160     2.3540 c3         1 3MA      -0.077400
      5 C2           3.5860     0.0070     0.6170 cc         1 3MA       0.379400
      6 N1           3.9980     0.0210    -0.6370 nd         1 3MA      -0.586000
      7 C6           3.1340     0.0280    -1.6460 cd         1 3MA       0.691200
      8 N6           3.5760     0.0430    -2.9570 nv         1 3MA      -0.638500
      9 C5           1.7600     0.0200    -1.3500 cc         1 3MA      -0.057900
     10 N7           0.6260     0.0240    -2.0910 nc         1 3MA      -0.423100
     11 C8          -0.4080     0.0130    -1.3010 cd         1 3MA       0.306700
     12 HN9         -0.5920    -0.0100     0.8070 hn         1 3MA       0.155700
     13 H31          1.3380    -0.9060     2.5580 h1         1 3MA       0.058700
     14 H32          1.3270     0.8630     2.5740 h1         1 3MA       0.058700
     15 H33          2.8090    -0.0150     2.9740 h1         1 3MA       0.058700
     16 H2           4.3260     0.0020     1.4090 h5         1 3MA       0.043100
     17 HN61         3.7530    -0.8190    -3.4350 hn         1 3MA       0.316800
     18 HN62         3.7470     0.9150    -3.4180 hn         1 3MA       0.316800
     19 H8          -1.4410     0.0130    -1.6280 h5         1 3MA       0.064800
@<TRIPOS>BOND
     1     1     2 2   
     2     1    11 1   
     3     1    12 1   
     4     2     3 1   
     5     2     9 1   
     6     3     4 1   
     7     3     5 1   
     8     4    13 1   
     9     4    14 1   
    10     4    15 1   
    11     5     6 2   
    12     5    16 1   
    13     6     7 1   
    14     7     8 1   
    15     7     9 2   
    16     8    17 1   
    17     8    18 1   
    18     9    10 1   
    19    10    11 2   
    20    11    19 1   
@<TRIPOS>SUBSTRUCTURE
     1 3MA         1 TEMP              0 ****  ****    0 ROOT
