@<TRIPOS>MOLECULE
3MB
   21    21     1     0     0
SMALL
bcc


@<TRIPOS>ATOM
      1 C3           0.0000     0.0000     0.0000 ca         1 3MB       0.186100
      2 O3          -0.6800     0.0040    -1.1770 os         1 3MB      -0.262900
      3 C7          -2.0710    -0.0020    -0.8500 c3         1 3MB       0.221700
      4 C2           1.3850     0.0000     0.0000 ca         1 3MB      -0.030000
      5 C1           2.0770     0.0000     1.2090 ca         1 3MB      -0.198600
      6 C            3.5550     0.0040     1.2180 c          1 3MB       0.355700
      7 O            4.1690     0.0120     0.1690 o          1 3MB      -0.424100
      8 N            4.2240     0.0000     2.3880 nz         1 3MB       0.200600
      9 C6           1.3710    -0.0080     2.4130 ca         1 3MB      -0.137000
     10 C5          -0.0090    -0.0120     2.4020 ca         1 3MB      -0.059000
     11 C4          -0.6950    -0.0080     1.2020 ca         1 3MB      -0.146000
     12 H71         -2.3080     0.8790    -0.2660 h1         1 3MB       0.012367
     13 H72         -2.3030    -0.8900    -0.2740 h1         1 3MB       0.012367
     14 H73         -2.6560     0.0010    -1.7620 h1         1 3MB       0.012367
     15 H2           1.9260    -0.0840    -0.9340 ha         1 3MB       0.148000
     16 HN1          3.9740    -0.8150     2.9120 hn         1 3MB       0.247133
     17 HN2          3.9850     0.8190     2.9110 hn         1 3MB       0.247133
     18 H6           1.9050     0.0350     3.3550 ha         1 3MB       0.083000
     19 H5          -0.5560    -0.0180     3.3370 ha         1 3MB       0.126000
     20 H4          -1.6900    -0.0110     1.6300 ha         1 3MB       0.160000
     21 HN3          5.2080    -0.0060     2.2090 hn         1 3MB       0.247133
@<TRIPOS>BOND
     1     1     2 1   
     2     1     4 ar  
     3     1    11 ar  
     4     2     3 1   
     5     3    12 1   
     6     3    13 1   
     7     3    14 1   
     8     4     5 ar  
     9     4    15 1   
    10     5     6 1   
    11     5     9 ar  
    12     6     7 2   
    13     6     8 1   
    14     8    16 1   
    15     8    17 1   
    16     8    21 1   
    17     9    10 ar  
    18     9    18 1   
    19    10    11 ar  
    20    10    19 1   
    21    11    20 1   
@<TRIPOS>SUBSTRUCTURE
     1 3MB         1 TEMP              0 ****  ****    0 ROOT
