@<TRIPOS>MOLECULE
molecule
   18    18     1     0     0
SMALL
bcc


@<TRIPOS>ATOM
      1 N3           0.0000     0.0000     0.0000 n          1 3MC      -0.254400
      2 CN3         -0.7240     0.0070    -1.2730 c3         1 3MC       0.023300
      3 N1           2.0270     0.0000     1.1530 ns         1 3MC      -0.333100
      4 C2           1.3330     0.0000     0.0000 c          1 3MC       0.759500
      5 O2           1.9320     0.0090    -1.0630 o          1 3MC      -0.453500
      6 C4          -0.6770    -0.0100     1.1400 cc         1 3MC       0.364800
      7 N4          -2.0520    -0.0150     1.1280 nz         1 3MC      -0.768600
      8 C5           0.0210    -0.0150     2.3660 cc         1 3MC      -0.351600
      9 C6           1.3750    -0.0100     2.3490 cd         1 3MC       0.210600
     10 H31         -1.3510    -0.8750    -1.3370 h1         1 3MC       0.120367
     11 H32         -0.0150     0.0060    -2.0920 h1         1 3MC       0.120367
     12 H33         -1.3430     0.8940    -1.3320 h1         1 3MC       0.120367
     13 HN1          3.0280     0.0080     1.1310 hn         1 3MC       0.436500
     14 HN41        -2.3790    -0.8410     0.6660 hn         1 3MC       0.506467
     15 HN42        -2.3840     0.7930     0.6400 hn         1 3MC       0.506467
     16 H5          -0.5080    -0.2110     3.2900 ha         1 3MC       0.232000
     17 H6           1.9280     0.1400     3.2680 h4         1 3MC       0.256000
     18 H43         -2.3940     0.0040     2.0680 hn         1 3MC       0.506467
@<TRIPOS>BOND
     1     1     2 1
     2     1     4 1
     3     1     6 2
     4     2    10 1
     5     2    11 1
     6     2    12 1
     7     3     4 1
     8     3     9 1
     9     3    13 1
    10     4     5 2
    11     6     7 1
    12     6     8 1
    13     7    14 1
    14     7    15 1
    15     8     9 2
    16     8    16 1
    17     9    17 1
    18    18     7 1
@<TRIPOS>SUBSTRUCTURE
     1 3MC         1 TEMP              0 ****  ****    0 ROOT
