@<TRIPOS>MOLECULE
molecule
   16    16     1     0     0
SMALL
bcc


@<TRIPOS>ATOM
      1 S1           0.0000     0.0000     0.0000 s          1 3MH      -0.609400
      2 C1           1.7120     0.0000     0.0000 cs         1 3MH       0.415600
      3 C2           2.4130     0.0000     1.2160 cc         1 3MH      -0.122400
      4 C6           1.6670    -0.0010     2.5250 c3         1 3MH      -0.033900
      5 C3           3.7770    -0.0000     1.2020 cd         1 3MH      -0.069000
      6 C4           4.4500    -0.0000    -0.0310 cd         1 3MH      -0.200000
      7 C5           3.7440     0.0000    -1.1850 cc         1 3MH      -0.023400
      8 N1           2.3860    -0.0050    -1.1670 n          1 3MH      -0.095500
      9 O1           1.6690    -0.0050    -2.3880 oh         1 3MH      -0.338100
     10 H1           1.0460    -0.8860     2.5860 hc         1 3MH       0.059033
     11 H2           1.0430     0.8830     2.5860 hc         1 3MH       0.059033
     12 H3           2.3760     0.0000     3.3440 hc         1 3MH       0.059033
     13 H4           4.3350    -0.0000     2.1300 ha         1 3MH       0.149000
     14 H5           5.5330     0.0020    -0.0570 ha         1 3MH       0.158000
     15 H6           4.2680    -0.0020    -2.1330 h4         1 3MH       0.171000
     16 H7           1.5640    -0.8920    -2.6910 ho         1 3MH       0.421000
@<TRIPOS>BOND
     1     7     6 2   
     2     7     8 1   
     3     6     5 1   
     4     9     8 1   
     5     8     2 1   
     6     5     3 2   
     7     2     3 1   
     8     2     1 2   
     9     3     4 1   
    10     4    10 1   
    11     4    11 1   
    12     4    12 1   
    13     5    13 1   
    14     6    14 1   
    15     7    15 1   
    16     9    16 1   
@<TRIPOS>SUBSTRUCTURE
     1 3MH         1 TEMP              0 ****  ****    0 ROOT
