@<TRIPOS>MOLECULE
molecule
   50    50     1     0     0
SMALL
bcc


@<TRIPOS>ATOM
      1 C7           0.0000     0.0000     0.0000 ca         1 3MJ      -0.119500
      2 C5           2.0790     0.0000     1.2050 ca         1 3MJ       0.097100
      3 C6           1.3820     0.0000     0.0000 ca         1 3MJ       0.084100
      4 C4           1.3880     0.0000     2.4150 ca         1 3MJ       0.084100
      5 C3           0.0070     0.0010     2.4230 ca         1 3MJ      -0.119500
      6 C2          -0.6980     0.0010     1.2130 ca         1 3MJ      -0.157600
      7 C1          -2.1670     0.0010     1.2170 c          1 3MJ       0.576700
      8 C11         -2.9170     0.0010     2.5250 c3         1 3MJ      -0.178400
      9 C12         -4.4220     0.0020     2.2490 c3         1 3MJ      -0.072400
     10 C13         -5.1840     0.0030     3.5760 c3         1 3MJ      -0.084400
     11 C14         -6.6880     0.0030     3.3010 c3         1 3MJ      -0.080400
     12 C15         -7.4500     0.0040     4.6280 c3         1 3MJ      -0.082400
     13 C16         -8.9550     0.0040     4.3520 c3         1 3MJ      -0.081400
     14 C17         -9.7150     0.0050     5.6790 c3         1 3MJ      -0.082400
     15 O8           2.0740    -0.0010     3.5890 oh         1 3MJ      -0.505600
     16 O9           3.4380    -0.0020     1.2010 oh         1 3MJ      -0.499100
     17 O10          2.0610    -0.0000    -1.1780 oh         1 3MJ      -0.505600
     18 C18        -11.2210     0.0050     5.4040 c3         1 3MJ      -0.082400
     19 C19        -11.9820     0.0060     6.7310 c3         1 3MJ      -0.082400
     20 C20        -13.4880     0.0060     6.4560 c3         1 3MJ      -0.084400
     21 C21        -14.2480     0.0070     7.7830 c3         1 3MJ      -0.092100
     22 O22         -2.7770     0.0010     0.1690 o          1 3MJ      -0.522100
     23 H1          -0.5420     0.0000    -0.9380 ha         1 3MJ       0.157000
     24 H2          -0.5300     0.0010     3.3640 ha         1 3MJ       0.157000
     25 H3          -2.6540    -0.8840     3.0920 hc         1 3MJ       0.066200
     26 H4          -2.6530     0.8850     3.0930 hc         1 3MJ       0.066200
     27 H5          -4.6860    -0.8830     1.6820 hc         1 3MJ       0.056200
     28 H6          -4.6840     0.8870     1.6810 hc         1 3MJ       0.056200
     29 H7          -4.9200    -0.8810     4.1440 hc         1 3MJ       0.039700
     30 H8          -4.9200     0.8880     4.1430 hc         1 3MJ       0.039700
     31 H9          -6.9520    -0.8820     2.7340 hc         1 3MJ       0.043700
     32 H10         -6.9510     0.8870     2.7330 hc         1 3MJ       0.043700
     33 H11         -7.1870    -0.8800     5.1960 hc         1 3MJ       0.040700
     34 H12         -7.1870     0.8890     5.1950 hc         1 3MJ       0.040700
     35 H13         -9.2180     0.8880     3.7840 hc         1 3MJ       0.041700
     36 H14         -9.2180    -0.8810     3.7860 hc         1 3MJ       0.041700
     37 H15         -9.4520     0.8900     6.2460 hc         1 3MJ       0.040700
     38 H16         -9.4520    -0.8790     6.2470 hc         1 3MJ       0.040700
     39 H17          2.0680     0.8670     3.9580 ho         1 3MJ       0.424000
     40 H18          3.7510    -0.8900     1.2400 ho         1 3MJ       0.427000
     41 H19          1.9260    -0.8230    -1.6190 ho         1 3MJ       0.424000
     42 H20        -11.4850    -0.8800     4.8380 hc         1 3MJ       0.041700
     43 H21        -11.4840     0.8890     4.8370 hc         1 3MJ       0.041700
     44 H22        -11.7180    -0.8780     7.2990 hc         1 3MJ       0.040700
     45 H23        -11.7180     0.8910     7.2980 hc         1 3MJ       0.040700
     46 H24        -13.7510    -0.8790     5.8890 hc         1 3MJ       0.039700
     47 H25        -13.7510     0.8900     5.8880 hc         1 3MJ       0.039700
     48 H26        -13.9800     0.8890     8.3520 hc         1 3MJ       0.032367
     49 H27        -13.9900    -0.8800     8.3480 hc         1 3MJ       0.032367
     50 H28        -15.3140     0.0130     7.5880 hc         1 3MJ       0.032367
@<TRIPOS>BOND
     1    13    14 1
     2    13    12 1
     3    14    18 1
     4    17     3 1
     5    22     7 2
     6    18    19 1
     7     1     3 ar
     8     1     6 ar
     9     3     2 ar
    10    12    11 1
    11     7     6 1
    12     7     8 1
    13    11    10 1
    14     6     5 ar
    15    19    20 1
    16     2    16 1
    17     2     4 ar
    18     5     4 ar
    19     8     9 1
    20     4    15 1
    21    10     9 1
    22    20    21 1
    23     1    23 1
    24     5    24 1
    25     8    25 1
    26     8    26 1
    27     9    27 1
    28     9    28 1
    29    10    29 1
    30    10    30 1
    31    11    31 1
    32    11    32 1
    33    12    33 1
    34    12    34 1
    35    13    35 1
    36    13    36 1
    37    14    37 1
    38    14    38 1
    39    15    39 1
    40    16    40 1
    41    17    41 1
    42    18    42 1
    43    18    43 1
    44    19    44 1
    45    19    45 1
    46    20    46 1
    47    20    47 1
    48    21    48 1
    49    21    49 1
    50    21    50 1
@<TRIPOS>SUBSTRUCTURE
     1 3MJ         1 TEMP              0 ****  ****    0 ROOT
