@<TRIPOS>MOLECULE
3MJ
   50    50     1     0     0
SMALL
bcc


@<TRIPOS>ATOM
      1 C7          0.0490    0.0490    0.0820 ca        1 3MJ     -0.140000
      2 C5          2.1040    0.0760    1.3870 ca        1 3MJ      0.048100
      3 C6          1.4440    0.0700    0.1440 ca        1 3MJ      0.094600
      4 C4          1.3370    0.0610    2.5690 ca        1 3MJ      0.094600
      5 C3         -0.0640    0.0410    2.5060 ca        1 3MJ     -0.140000
      6 C2         -0.7030    0.0340    1.2640 ca        1 3MJ     -0.139600
      7 C1         -2.1820    0.0130    1.1500 c         1 3MJ      0.579700
      8 C11        -2.9620    0.0170    2.4340 c3        1 3MJ     -0.175400
      9 C12        -4.4580    0.0080    2.1990 c3        1 3MJ     -0.075400
     10 C13        -5.2130    0.0110    3.5100 c3        1 3MJ     -0.079400
     11 C14        -6.7090    0.0030    3.2770 c3        1 3MJ     -0.078400
     12 C15        -7.4680    0.0070    4.5860 c3        1 3MJ     -0.079400
     13 C16        -8.9640   -0.0010    4.3530 c3        1 3MJ     -0.079400
     14 C17        -9.7240    0.0030    5.6620 c3        1 3MJ     -0.078400
     15 O8          1.9070    0.0670    3.8190 oh        1 3MJ     -0.503100
     16 O9          3.4730    0.0970    1.5260 oh        1 3MJ     -0.509100
     17 O10         2.2560    0.0850   -0.9710 oh        1 3MJ     -0.503100
     18 C18       -11.2200   -0.0040    5.4290 c3        1 3MJ     -0.079400
     19 C19       -11.9800   -0.0010    6.7380 c3        1 3MJ     -0.079400
     20 C20       -13.4760   -0.0070    6.5060 c3        1 3MJ     -0.080400
     21 C21       -14.2380   -0.0040    7.8060 c3        1 3MJ     -0.092100
     22 O22        -2.7350   -0.0080    0.0430 o         1 3MJ     -0.535100
     23 H1         -0.4690    0.0430   -0.8910 ha        1 3MJ      0.160500
     24 H2         -0.6280    0.0290    3.4500 ha        1 3MJ      0.160500
     25 H3         -2.6660   -0.8850    3.0340 hc        1 3MJ      0.069700
     26 H4         -2.6750    0.9290    3.0230 hc        1 3MJ      0.069700
     27 H5         -4.7450    0.9040    1.5880 hc        1 3MJ      0.055200
     28 H6         -4.7350   -0.8970    1.5980 hc        1 3MJ      0.055200
     29 H7         -4.9230   -0.8870    4.1170 hc        1 3MJ      0.038700
     30 H8         -4.9310    0.9190    4.1070 hc        1 3MJ      0.038700
     31 H9         -7.0000    0.9010    2.6710 hc        1 3MJ      0.042700
     32 H10        -6.9920   -0.9040    2.6800 hc        1 3MJ      0.042700
     33 H11        -7.1780   -0.8910    5.1930 hc        1 3MJ      0.039700
     34 H12        -7.1860    0.9140    5.1830 hc        1 3MJ      0.039700
     35 H13        -9.2550    0.8980    3.7470 hc        1 3MJ      0.039700
     36 H14        -9.2470   -0.9070    3.7560 hc        1 3MJ      0.039700
     37 H15        -9.4340   -0.8950    6.2680 hc        1 3MJ      0.039700
     38 H16        -9.4410    0.9100    6.2590 hc        1 3MJ      0.039700
     39 H17         2.8720    0.0810    3.7090 ho        1 3MJ      0.439000
     40 H18         3.8610    0.1040    0.6370 ho        1 3MJ      0.451000
     41 H19         1.6850    0.0760   -1.7520 ho        1 3MJ      0.439000
     42 H20       -11.5100    0.8950    4.8230 hc        1 3MJ      0.039700
     43 H21       -11.5030   -0.9100    4.8320 hc        1 3MJ      0.039700
     44 H22       -11.6900   -0.8990    7.3440 hc        1 3MJ      0.039700
     45 H23       -11.6970    0.9060    7.3350 hc        1 3MJ      0.039700
     46 H24       -13.7640    0.8910    5.8990 hc        1 3MJ      0.038700
     47 H25       -13.7570   -0.9130    5.9070 hc        1 3MJ      0.038700
     48 H26       -13.9830   -0.9050    8.4150 hc        1 3MJ      0.032700
     49 H27       -15.3370   -0.0090    7.6120 hc        1 3MJ      0.032700
     50 H28       -13.9890    0.9040    8.4060 hc        1 3MJ      0.032700
@<TRIPOS>BOND
     1    1    3 ar  
     2    1    6 ar  
     3    1   23 1   
     4    2    3 ar  
     5    2    4 ar  
     6    2   16 1   
     7    3   17 1   
     8    4    5 ar  
     9    4   15 1   
    10    5    6 ar  
    11    5   24 1   
    12    6    7 1   
    13    7    8 1   
    14    7   22 2   
    15    8    9 1   
    16    8   25 1   
    17    8   26 1   
    18    9   10 1   
    19    9   27 1   
    20    9   28 1   
    21   10   11 1   
    22   10   29 1   
    23   10   30 1   
    24   11   12 1   
    25   11   31 1   
    26   11   32 1   
    27   12   13 1   
    28   12   33 1   
    29   12   34 1   
    30   13   14 1   
    31   13   35 1   
    32   13   36 1   
    33   14   18 1   
    34   14   37 1   
    35   14   38 1   
    36   15   39 1   
    37   16   40 1   
    38   17   41 1   
    39   18   19 1   
    40   18   42 1   
    41   18   43 1   
    42   19   20 1   
    43   19   44 1   
    44   19   45 1   
    45   20   21 1   
    46   20   46 1   
    47   20   47 1   
    48   21   48 1   
    49   21   49 1   
    50   21   50 1   
@<TRIPOS>SUBSTRUCTURE
     1 3MJ         1 TEMP              0 ****  ****    0 ROOT
