@<TRIPOS>MOLECULE
3ML
   18    18     1     0     0
SMALL
bcc


@<TRIPOS>ATOM
      1 CAA         0.2970    0.2610   -0.6000 c3        1 3ML     -0.084900
      2 CAI         1.6630    0.0800   -0.1060 c2        1 3ML     -0.017400
      3 CAE         2.1320    0.1040    1.1660 ce        1 3ML     -0.318200
      4 CAJ         3.5910   -0.1340    1.1230 c         1 3ML      0.714800
      5 OAC         4.4640   -0.1990    1.9870 o         1 3ML     -0.629500
      6 OAG         3.9940   -0.2980   -0.1910 os        1 3ML     -0.429900
      7 CAK         2.8170   -0.1640   -1.0620 c3        1 3ML      0.160300
      8 CAF         2.6780   -1.3960   -1.9240 c3        1 3ML     -0.206400
      9 CAH         1.8200   -1.1210   -3.1770 c         1 3ML      0.911600
     10 OAD         1.5370    0.0780   -3.4700 o         1 3ML     -0.841300
     11 OAB         1.4440   -2.1220   -3.8450 o         1 3ML     -0.841300
     12 HAA        -0.2470    1.0360   -0.0060 hc        1 3ML      0.070700
     13 HAAA        0.3190    0.5540   -1.6880 hc        1 3ML      0.070700
     14 HAAB       -0.2620   -0.7070   -0.5210 hc        1 3ML      0.070700
     15 HAE         1.5990    0.2620    2.0990 ha        1 3ML      0.155000
     16 HAK         2.9990    0.7420   -1.7060 h1        1 3ML      0.116700
     17 HAF         3.6950   -1.7180   -2.2650 hc        1 3ML      0.049200
     18 HAFA        2.2250   -2.2380   -1.3470 hc        1 3ML      0.049200
@<TRIPOS>BOND
     1    1    2 1   
     2    1   12 1   
     3    1   13 1   
     4    1   14 1   
     5    2    3 2   
     6    2    7 1   
     7    3    4 1   
     8    3   15 1   
     9    4    5 2   
    10    4    6 1   
    11    6    7 1   
    12    7    8 1   
    13    7   16 1   
    14    8    9 1   
    15    8   17 1   
    16    8   18 1   
    17    9   10 1   
    18    9   11 1   
@<TRIPOS>SUBSTRUCTURE
     1 3ML         1 TEMP              0 ****  ****    0 ROOT
