@<TRIPOS>MOLECULE
molecule
   18    18     1     0     0
SMALL
bcc


@<TRIPOS>ATOM
      1 CAA          0.0000     0.0000     0.0000 c3         1 3ML      -0.035900
      2 CAI          1.5070     0.0000     0.0000 c2         1 3ML      -0.102400
      3 CAE          2.2990     0.0000     1.0700 ce         1 3ML      -0.301200
      4 CAJ          3.7010    -0.0010     0.6400 c          1 3ML       0.713800
      5 OAC          4.6590    -0.0010     1.3880 o          1 3ML      -0.616500
      6 OAG          3.7690    -0.0010    -0.7040 os         1 3ML      -0.334900
      7 CAK          2.4060    -0.0070    -1.2140 c3         1 3ML       0.173300
      8 CAF          2.1580    -1.2670    -2.0460 c3         1 3ML      -0.191400
      9 CAH          2.9710    -1.2010    -3.3140 c          1 3ML       0.892600
     10 OAD          3.6770    -0.2440    -3.5280 o          1 3ML      -0.840300
     11 OAB          2.9100    -2.2040    -4.2030 o          1 3ML      -0.840300
     12 HAA         -0.3610    -1.0200     0.0520 hc         1 3ML       0.046700
     13 HAAA        -0.3610     0.5550     0.8570 hc         1 3ML       0.046700
     14 HAAB        -0.3610     0.4650    -0.9090 hc         1 3ML       0.046700
     15 HAE          2.0060     0.5420     1.9610 ha         1 3ML       0.146000
     16 HAK          2.2310     0.8800    -1.8100 h1         1 3ML       0.103700
     17 HAF          2.4490    -2.1410    -1.4760 hc         1 3ML       0.046200
     18 HAFA         1.1050    -1.3340    -2.2960 hc         1 3ML       0.046200
@<TRIPOS>BOND
     1     1     2 1   
     2     1    12 1   
     3     1    13 1   
     4     1    14 1   
     5     2     7 1   
     6     2     3 2   
     7     3     4 1   
     8     3    15 1   
     9     6     4 1   
    10     4     5 2   
    11     7     6 1   
    12     8     7 1   
    13     7    16 1   
    14     8     9 1   
    15     8    17 1   
    16     8    18 1   
    17    10     9 1   
    18     9    11 1   
@<TRIPOS>SUBSTRUCTURE
     1 3ML         1 TEMP              0 ****  ****    0 ROOT
