@<TRIPOS>MOLECULE
molecule
   60    64     1     0     0
SMALL
bcc


@<TRIPOS>ATOM
      1 C2           0.0000     0.0000     0.0000 c3         1 3MN       0.025300
      2 N4           1.4650     0.0000     0.0000 na         1 3MN      -0.175900
      3 C29          2.2670     0.0000     1.0860 cc         1 3MN       0.338400
      4 C21          2.2760     0.0070    -1.1030 cc         1 3MN      -0.300600
      5 C30          3.5460     0.0050    -0.6520 cd         1 3MN       0.316200
      6 N5           3.5100    -0.0030     0.6890 nd         1 3MN      -0.720000
      7 C1          -0.5100    -1.4430    -0.0080 c3         1 3MN      -0.129400
      8 C16         -2.0400    -1.4440    -0.0080 c3         1 3MN       0.076000
      9 C18         -2.7770    -3.5400     1.0870 c          1 3MN       0.810500
     10 N2          -3.2140    -4.7810     0.8070 n          1 3MN      -0.516800
     11 C14         -3.2580    -4.8910    -0.6610 c3         1 3MN       0.080700
     12 C4          -2.7800    -3.5330    -1.1350 c          1 3MN       0.714500
     13 N1          -2.5280    -2.8250    -0.0160 n          1 3MN      -0.511400
     14 O2          -2.6500    -3.1600    -2.2810 o          1 3MN      -0.567500
     15 C11         -3.5780    -5.8200     1.7730 c3         1 3MN       0.140300
     16 C19         -5.0130    -5.6350     2.1940 ca         1 3MN      -0.095300
     17 C12         -5.3250    -4.7540     3.2090 ca         1 3MN      -0.070000
     18 C15         -6.6550    -4.5810     3.5940 ca         1 3MN      -0.010000
     19 C23         -7.6610    -5.3090     2.9560 ca         1 3MN      -0.084000
     20 C5          -7.3350    -6.1910     1.9470 ca         1 3MN      -0.127000
     21 C6          -6.0150    -6.3540     1.5660 ca         1 3MN      -0.097000
     22 C7          -6.9870    -3.6630     4.6440 cg         1 3MN       0.237800
     23 N3          -7.2690    -2.9420     5.4740 n1         1 3MN      -0.353800
     24 C20         -0.7880    -7.7510    -0.6620 ca         1 3MN      -0.148000
     25 C13         -0.6010    -8.0050    -1.9860 ca         1 3MN      -0.094000
     26 C17         -1.2860    -7.2390    -2.9440 ca         1 3MN       0.002000
     27 C24         -2.1670    -6.2140    -2.5150 ca         1 3MN      -0.023000
     28 C25         -2.3300    -5.9790    -1.1390 ca         1 3MN      -0.087300
     29 C26         -1.6500    -6.7410    -0.2400 ca         1 3MN      -0.147000
     30 C27         -1.1190    -7.4710    -4.3210 ca         1 3MN      -0.126000
     31 C8          -1.8000    -6.7090    -5.2190 ca         1 3MN      -0.137000
     32 C9          -2.6610    -5.6990    -4.7970 ca         1 3MN      -0.131000
     33 C10         -2.8480    -5.4440    -3.4730 ca         1 3MN      -0.100000
     34 C28         -4.6860    -5.1560    -1.1400 c3         1 3MN      -0.127100
     35 H21A        -0.1230     0.8240    -0.6920 h1         1 3MN       0.104200
     36 H22         -0.4760    -0.1080     0.9670 h1         1 3MN       0.104200
     37 H29          2.5790    -0.5730     1.9510 h5         1 3MN       0.127100
     38 H21          1.8770    -0.6750    -1.8440 h4         1 3MN       0.173000
     39 H30          4.2230     0.0080    -1.4980 h4         1 3MN       0.044100
     40 H11         -0.7260    -1.9800     0.9080 hc         1 3MN       0.087700
     41 H12A        -0.3360    -2.0530    -0.8860 hc         1 3MN       0.087700
     42 H161        -2.5030    -1.0550    -0.9070 h1         1 3MN       0.065700
     43 H162        -2.6470    -0.9960     0.7700 h1         1 3MN       0.065700
     44 H111        -3.2140    -6.7030     1.2620 h1         1 3MN       0.080700
     45 H112        -2.5790    -5.8360     2.1920 h1         1 3MN       0.080700
     46 H12         -4.3510    -4.4030     3.5260 ha         1 3MN       0.176000
     47 H23         -8.6480    -4.9520     3.2270 ha         1 3MN       0.149000
     48 H5          -8.1310    -6.8140     1.5570 ha         1 3MN       0.143000
     49 H6          -5.7170    -7.0520     0.7920 ha         1 3MN       0.137000
     50 H20         -0.4750    -8.2560     0.2440 ha         1 3MN       0.137000
     51 H13         -0.1460    -8.9880    -1.9920 ha         1 3MN       0.146000
     52 H26         -1.6420    -6.3910     0.7860 ha         1 3MN       0.135000
     53 H27         -0.3540    -8.0570    -4.8160 ha         1 3MN       0.140000
     54 H8          -1.7100    -6.8900    -6.2830 ha         1 3MN       0.130000
     55 H9          -3.3860    -5.5100    -5.5800 ha         1 3MN       0.133000
     56 H10         -3.6270    -4.7280    -3.2420 ha         1 3MN       0.160000
     57 H281        -5.5250    -4.7670    -0.5750 hc         1 3MN       0.062033
     58 H282        -4.7410    -5.4410    -2.1840 hc         1 3MN       0.062033
     59 H283        -4.9260    -6.1500    -0.7820 hc         1 3MN       0.062033
     60 O1          -2.6240    -3.1170     2.2170 o          1 3MN      -0.657500
@<TRIPOS>BOND
     1     1     2 1   
     2     1     7 1   
     3     1    35 1   
     4     1    36 1   
     5     2     3 1   
     6     2     4 1   
     7     3     6 2   
     8     3    37 1   
     9     4     5 2   
    10     4    38 1   
    11     5     6 1   
    12     5    39 1   
    13     7     8 1   
    14     7    40 1   
    15     7    41 1   
    16     8    13 1   
    17     8    42 1   
    18     8    43 1   
    19     9    10 1   
    20     9    13 1   
    21     9    60 2   
    22    10    11 1   
    23    10    15 1   
    24    11    12 1   
    25    11    28 1   
    26    11    34 1   
    27    12    13 1   
    28    12    14 2   
    29    15    16 1   
    30    15    44 1   
    31    15    45 1   
    32    16    17 ar  
    33    16    21 ar  
    34    17    18 ar  
    35    17    46 1   
    36    18    19 ar  
    37    18    22 1   
    38    19    20 ar  
    39    19    47 1   
    40    20    21 ar  
    41    20    48 1   
    42    21    49 1   
    43    22    23 3   
    44    24    25 ar  
    45    24    29 ar  
    46    24    50 1   
    47    25    26 ar  
    48    25    51 1   
    49    26    27 ar  
    50    26    30 ar  
    51    27    28 ar  
    52    27    33 ar  
    53    28    29 ar  
    54    29    52 1   
    55    30    31 ar  
    56    30    53 1   
    57    31    32 ar  
    58    31    54 1   
    59    32    33 ar  
    60    32    55 1   
    61    33    56 1   
    62    34    57 1   
    63    34    58 1   
    64    34    59 1   
@<TRIPOS>SUBSTRUCTURE
     1 3MN         1 TEMP              0 ****  ****    0 ROOT
