@<TRIPOS>MOLECULE
3MO
   14    14     1     0     0
SMALL
bcc


@<TRIPOS>ATOM
      1 N2           0.0000     0.0000     0.0000 n          1 3MO      -0.223800
      2 C4           0.8210    -0.0100     2.2230 c3         1 3MO       0.191400
      3 O6           2.0030     0.0080    -1.0180 o          1 3MO      -0.681500
      4 C1           1.3390     0.0000     0.0000 c          1 3MO       0.782600
      5 O5           1.8800     0.0000     1.2230 os         1 3MO      -0.379900
      6 C3          -0.4770    -0.0100     1.3920 c3         1 3MO       0.002000
      7 C7          -0.8520     0.0040    -1.1920 c3         1 3MO       0.144300
      8 H41          0.8720    -0.9680     2.7270 h1         1 3MO       0.034200
      9 H42          0.8650     0.9410     2.7400 h1         1 3MO       0.034200
     10 H31         -0.9640     0.9420     1.5660 h1         1 3MO       0.035200
     11 H32         -0.9570    -0.9680     1.5550 h1         1 3MO       0.035200
     12 H71         -1.8930     0.0020    -0.8920 h1         1 3MO       0.008700
     13 H72         -0.6460    -0.8780    -1.7860 h1         1 3MO       0.008700
     14 H73         -0.6470     0.8910    -1.7790 h1         1 3MO       0.008700
@<TRIPOS>BOND
     1     1     4 1   
     2     1     6 1   
     3     1     7 1   
     4     2     5 1   
     5     2     6 1   
     6     2     8 1   
     7     2     9 1   
     8     3     4 2   
     9     4     5 1   
    10     6    10 1   
    11     6    11 1   
    12     7    12 1   
    13     7    13 1   
    14     7    14 1   
@<TRIPOS>SUBSTRUCTURE
     1 3MO         1 TEMP              0 ****  ****    0 ROOT
