@<TRIPOS>MOLECULE
molecule
   14    14     1     0     0
SMALL
bcc


@<TRIPOS>ATOM
      1 CB           0.0000     0.0000     0.0000 c3         1 3MP      -0.044800
      2 CG           1.5060     0.0000     0.0000 ca         1 3MP      -0.207600
      3 CD1          2.2090     0.0000     1.1950 ca         1 3MP      -0.094000
      4 CD2          2.2060    -0.0020    -1.1910 ca         1 3MP       0.418200
      5 CE1          3.5930     0.0010     1.1470 ca         1 3MP      -0.251300
      6 CZ           4.2240     0.0020    -0.0820 ca         1 3MP       0.412200
      7 NE2          3.5240     0.0040    -1.1990 nb         1 3MP      -0.687000
      8 HB1         -0.3610     0.2820     0.9820 hc         1 3MP       0.045367
      9 HB2         -0.3610     0.7090    -0.7350 hc         1 3MP       0.045367
     10 HB3         -0.3610    -0.9910    -0.2470 hc         1 3MP       0.045367
     11 HD1          1.6870    -0.0010     2.1450 ha         1 3MP       0.137000
     12 HD2          1.6650    -0.0000    -2.1290 h4         1 3MP       0.022100
     13 HE1          4.1740     0.0000     2.0620 ha         1 3MP       0.137000
     14 HZ           5.3070     0.0050    -0.1280 h4         1 3MP       0.022100
@<TRIPOS>BOND
     1     1     2 1
     2     1     8 1
     3     1     9 1
     4     1    10 1
     5     2     3 ar
     6     2     4 ar
     7     3     5 ar
     8     3    11 1
     9     4     7 ar
    10     4    12 1
    11     5     6 ar
    12     5    13 1
    13     6     7 ar
    14     6    14 1
@<TRIPOS>SUBSTRUCTURE
     1 3MP         1 TEMP              0 ****  ****    0 ROOT
