@<TRIPOS>MOLECULE
3MP
   14    14     1     0     0
SMALL
bcc


@<TRIPOS>ATOM
      1 CB          0.0050   -0.0020    0.0040 c3        1 3MP     -0.050800
      2 CG          1.4820    0.0060    0.0150 ca        1 3MP     -0.191600
      3 CD1         2.2040    0.0400    1.2150 ca        1 3MP     -0.096000
      4 CD2         2.2140   -0.0340   -1.1920 ca        1 3MP      0.392200
      5 CE1         3.5980    0.0310    1.1710 ca        1 3MP     -0.242300
      6 CZ          4.2300   -0.0110   -0.0850 ca        1 3MP      0.387200
      7 NE2         3.5580   -0.0430   -1.2520 nb        1 3MP     -0.662000
      8 HB1        -0.4050    0.5450    0.8880 hc        1 3MP      0.047033
      9 HB2        -0.3900    0.4790   -0.9250 hc        1 3MP      0.047033
     10 HB3        -0.3720   -1.0560    0.0390 hc        1 3MP      0.047033
     11 HD1         1.6750    0.0750    2.1790 ha        1 3MP      0.137000
     12 HD2         1.6890   -0.0590   -2.1640 h4        1 3MP      0.021100
     13 HE1         4.1940    0.0570    2.0920 ha        1 3MP      0.142000
     14 HZ          5.3320   -0.0200   -0.1650 h4        1 3MP      0.021100
@<TRIPOS>BOND
     1    1    2 1   
     2    1    8 1   
     3    1    9 1   
     4    1   10 1   
     5    2    3 ar  
     6    2    4 ar  
     7    3    5 ar  
     8    3   11 1   
     9    4    7 ar  
    10    4   12 1   
    11    5    6 ar  
    12    5   13 1   
    13    6    7 ar  
    14    6   14 1   
@<TRIPOS>SUBSTRUCTURE
     1 3MP         1 TEMP              0 ****  ****    0 ROOT
