@<TRIPOS>MOLECULE
3MQ
   19    20     1     0     0
SMALL
bcc


@<TRIPOS>ATOM
      1 C10         0.0050   -0.0030    0.0290 cc        1 3MQ     -0.166100
      2 C01         3.0210    0.0030    2.4010 cc        1 3MQ      0.347200
      3 C02         4.3560    0.0110    2.0360 cd        1 3MQ     -0.332600
      4 C03         5.0790    0.0090    3.3040 cd        1 3MQ      0.313600
      5 N04         4.1880    0.0020    4.3200 nc        1 3MQ     -0.362300
      6 O05         2.9700   -0.0020    3.8260 os        1 3MQ     -0.111100
      7 C06         6.5580    0.0160    3.4600 c3        1 3MQ      0.101100
      8 O07         7.1300    0.0260    2.1590 oh        1 3MQ     -0.597800
      9 C08         1.7830    0.0000    1.7060 cc        1 3MQ     -0.186600
     10 S09         1.6670    0.0030    0.0240 ss        1 3MQ      0.066200
     11 C11        -0.5110   -0.0080    1.3100 cd        1 3MQ     -0.160000
     12 C12         0.5220   -0.0060    2.2900 cd        1 3MQ     -0.111000
     13 H10        -0.5860   -0.0030   -0.8860 h4        1 3MQ      0.175000
     14 H02         4.8180    0.0170    1.0540 ha        1 3MQ      0.189000
     15 H06         6.8920   -0.9040    4.0170 h1        1 3MQ      0.048700
     16 H06A        6.8830    0.9310    4.0280 h1        1 3MQ      0.048700
     17 HO07        8.0860    0.0310    2.2890 ho        1 3MQ      0.409000
     18 H11        -1.5740   -0.0120    1.5600 ha        1 3MQ      0.159000
     19 H12         0.3440   -0.0090    3.3690 ha        1 3MQ      0.170000
@<TRIPOS>BOND
     1    1   10 1   
     2    1   11 2   
     3    1   13 1   
     4    2    3 2   
     5    2    6 1   
     6    2    9 1   
     7    3    4 1   
     8    3   14 1   
     9    4    5 2   
    10    4    7 1   
    11    5    6 1   
    12    7    8 1   
    13    7   15 1   
    14    7   16 1   
    15    8   17 1   
    16    9   10 1   
    17    9   12 2   
    18   11   12 1   
    19   11   18 1   
    20   12   19 1   
@<TRIPOS>SUBSTRUCTURE
     1 3MQ         1 TEMP              0 ****  ****    0 ROOT
