@<TRIPOS>MOLECULE
3MR
   80    84     1     0     0
SMALL
bcc


@<TRIPOS>ATOM
      1 C1           0.0000     0.0000     0.0000 c3         1 3MR       0.073300
      2 N2           1.4650     0.0000     0.0000 n          1 3MR      -0.137800
      3 C3           2.1390     0.0020    -1.1670 c          1 3MR       0.584100
      4 O4           3.3520     0.0020    -1.1670 o          1 3MR      -0.628100
      5 C5           1.3860     0.0020    -2.4720 c3         1 3MR      -0.112400
      6 C6           2.3810     0.0040    -3.6340 c3         1 3MR      -0.046400
      7 C7           1.6170     0.0050    -4.9600 c3         1 3MR       0.143500
      8 C9           2.6060     0.1320    -6.1200 c3         1 3MR      -0.066700
      9 C10          1.8550     0.0080    -7.4470 c3         1 3MR      -0.028900
     10 C11          2.8450     0.1360    -8.6070 c3         1 3MR      -0.019400
     11 C12          3.5400     1.4980    -8.5380 c3         1 3MR      -0.026400
     12 C13          4.2910     1.6200    -7.2100 c3         1 3MR      -0.019400
     13 C14          3.3010     1.4930    -6.0510 c3         1 3MR      -0.028900
     14 N15          0.8670    -1.2480    -5.0920 nh         1 3MR      -0.454600
     15 C16          1.5520    -2.5460    -4.9990 c3         1 3MR       0.249100
     16 C17          0.9770    -3.4490    -6.0640 ca         1 3MR      -0.098300
     17 C18          1.7230    -4.4800    -6.5880 ca         1 3MR      -0.106000
     18 C19          1.1780    -5.3020    -7.5660 ca         1 3MR       0.186100
     19 O20          1.9140    -6.3220    -8.0830 os         1 3MR      -0.225200
     20 C21          2.5820    -6.1000    -9.2460 ca         1 3MR       0.128100
     21 C22          3.3700    -7.1010    -9.7960 ca         1 3MR      -0.165500
     22 C23          4.0480    -6.8730   -10.9780 ca         1 3MR      -0.054000
     23 C24          3.9430    -5.6490   -11.6120 ca         1 3MR      -0.122000
     24 C25          3.1580    -4.6490   -11.0650 ca         1 3MR      -0.054000
     25 C26          2.4740    -4.8740    -9.8870 ca         1 3MR      -0.165500
     26 C27         -0.1170    -5.0860    -8.0170 ca         1 3MR      -0.121000
     27 C28         -0.8690    -4.0530    -7.4960 ca         1 3MR      -0.005000
     28 C29         -0.3270    -3.2230    -6.5140 ca         1 3MR       0.031400
     29 N30         -1.0630    -2.1930    -5.9930 ne         1 3MR      -0.392100
     30 C31         -0.4930    -1.2340    -5.3010 c2         1 3MR       0.189100
     31 N32         -1.2530    -0.2120    -4.7870 nz         1 3MR       0.188400
     32 C33          2.1970     0.0000     1.2690 c3         1 3MR       0.014700
     33 C34          1.8260     1.2480     2.0730 c3         1 3MR      -0.041400
     34 C35          2.5910     1.2470     3.3980 c3         1 3MR      -0.017400
     35 C36          2.2220    -0.0030     4.1990 c3         1 3MR      -0.028400
     36 C37          2.5920    -1.2510     3.3960 c3         1 3MR      -0.017400
     37 C38          1.8280    -1.2500     2.0700 c3         1 3MR      -0.041400
     38 H11         -0.3610    -0.0650     1.0190 h1         1 3MR       0.008033
     39 H12         -0.3610     0.9150    -0.4540 h1         1 3MR       0.008033
     40 H13         -0.3610    -0.8500    -0.5660 h1         1 3MR       0.008033
     41 H51          0.7640    -0.8830    -2.5310 hc         1 3MR       0.012200
     42 H52          0.7620     0.8860    -2.5290 hc         1 3MR       0.012200
     43 H61          3.0040    -0.8800    -3.5770 hc         1 3MR       0.064200
     44 H62          3.0030     0.8890    -3.5760 hc         1 3MR       0.064200
     45 H7           0.9290     0.8410    -4.9800 h1         1 3MR       0.011700
     46 H9           3.3500    -0.6540    -6.0540 hc         1 3MR       0.052700
     47 H101         1.3670    -0.9570    -7.4960 hc         1 3MR       0.015700
     48 H102         1.1160     0.7970    -7.5170 hc         1 3MR       0.015700
     49 H111         2.3110     0.0520    -9.5460 hc         1 3MR       0.023450
     50 H112         3.5860    -0.6500    -8.5360 hc         1 3MR       0.023450
     51 H121         4.2430     1.5850    -9.3580 hc         1 3MR       0.022200
     52 H122         2.7980     2.2840    -8.6050 hc         1 3MR       0.022200
     53 H131         4.7810     2.5850    -7.1610 hc         1 3MR       0.023450
     54 H132         5.0300     0.8300    -7.1400 hc         1 3MR       0.023450
     55 H141         2.5590     2.2790    -6.1230 hc         1 3MR       0.015700
     56 H142         3.8340     1.5780    -5.1110 hc         1 3MR       0.015700
     57 H161         2.6140    -2.4130    -5.1670 h1         1 3MR       0.046700
     58 H162         1.3810    -2.9800    -4.0210 h1         1 3MR       0.046700
     59 H18          2.7050    -4.6970    -6.1840 ha         1 3MR       0.137000
     60 H22          3.4530    -8.0600    -9.3000 ha         1 3MR       0.115500
     61 H23          4.6630    -7.6530   -11.4090 ha         1 3MR       0.108500
     62 H24          4.4770    -5.4710   -12.5370 ha         1 3MR       0.113000
     63 H25          3.0750    -3.6910   -11.5650 ha         1 3MR       0.108500
     64 H26          1.8590    -4.0910    -9.4600 ha         1 3MR       0.115500
     65 H27         -0.5380    -5.7290    -8.7800 ha         1 3MR       0.139000
     66 H28         -1.8800    -3.8860    -7.8500 ha         1 3MR       0.125000
     67 H321        -1.9690     0.0330    -5.4420 hn         1 3MR       0.219133
     68 H322        -1.6730    -0.5090    -3.9280 hn         1 3MR       0.219133
     69 H33          3.2630     0.0010     1.0760 h1         1 3MR       0.081700
     70 H341         2.0900     2.1330     1.5060 hc         1 3MR       0.017450
     71 H342         0.7610     1.2450     2.2720 hc         1 3MR       0.017450
     72 H351         2.3260     2.1300     3.9670 hc         1 3MR       0.021700
     73 H352         3.6560     1.2450     3.1980 hc         1 3MR       0.021700
     74 H361         1.1560    -0.0040     4.3950 hc         1 3MR       0.019200
     75 H362         2.7670    -0.0040     5.1360 hc         1 3MR       0.019200
     76 H371         2.3270    -2.1350     3.9630 hc         1 3MR       0.021700
     77 H372         3.6560    -1.2490     3.1970 hc         1 3MR       0.021700
     78 H381         0.7630    -1.2500     2.2680 hc         1 3MR       0.017450
     79 H382         2.0940    -2.1330     1.5010 hc         1 3MR       0.017450
     80 H323        -0.6700     0.5820    -4.6130 hn         1 3MR       0.219133
@<TRIPOS>BOND
     1     1     2 1   
     2     1    38 1   
     3     1    39 1   
     4     1    40 1   
     5     2     3 1   
     6     2    32 1   
     7     3     4 2   
     8     3     5 1   
     9     5     6 1   
    10     5    41 1   
    11     5    42 1   
    12     6     7 1   
    13     6    43 1   
    14     6    44 1   
    15     7     8 1   
    16     7    14 1   
    17     7    45 1   
    18     8     9 1   
    19     8    13 1   
    20     8    46 1   
    21     9    10 1   
    22     9    47 1   
    23     9    48 1   
    24    10    11 1   
    25    10    49 1   
    26    10    50 1   
    27    11    12 1   
    28    11    51 1   
    29    11    52 1   
    30    12    13 1   
    31    12    53 1   
    32    12    54 1   
    33    13    55 1   
    34    13    56 1   
    35    14    15 1   
    36    14    30 1   
    37    15    16 1   
    38    15    57 1   
    39    15    58 1   
    40    16    17 ar  
    41    16    28 ar  
    42    17    18 ar  
    43    17    59 1   
    44    18    19 1   
    45    18    26 ar  
    46    19    20 1   
    47    20    21 ar  
    48    20    25 ar  
    49    21    22 ar  
    50    21    60 1   
    51    22    23 ar  
    52    22    61 1   
    53    23    24 ar  
    54    23    62 1   
    55    24    25 ar  
    56    24    63 1   
    57    25    64 1   
    58    26    27 ar  
    59    26    65 1   
    60    27    28 ar  
    61    27    66 1   
    62    28    29 1   
    63    29    30 2   
    64    30    31 1   
    65    31    67 1   
    66    31    68 1   
    67    31    80 1   
    68    32    33 1   
    69    32    37 1   
    70    32    69 1   
    71    33    34 1   
    72    33    70 1   
    73    33    71 1   
    74    34    35 1   
    75    34    72 1   
    76    34    73 1   
    77    35    36 1   
    78    35    74 1   
    79    35    75 1   
    80    36    37 1   
    81    36    76 1   
    82    36    77 1   
    83    37    78 1   
    84    37    79 1   
@<TRIPOS>SUBSTRUCTURE
     1 3MR         1 TEMP              0 ****  ****    0 ROOT
