@<TRIPOS>MOLECULE
molecule
   56    59     1     0     0
SMALL
bcc


@<TRIPOS>ATOM
      1 C4           0.0000     0.0000     0.0000 cc         1 3MS      -0.131000
      2 C5           7.6770     0.6510     4.7810 ca         1 3MS      -0.031000
      3 C6           0.7030    -0.0020    -2.1110 cd         1 3MS      -0.124300
      4 C7           5.6620     1.2600     3.5980 ca         1 3MS       0.246400
      5 C8           7.4570     1.6860     5.6860 ca         1 3MS       0.102600
      6 C10          1.3830     0.0000     0.0000 cd         1 3MS      -0.176100
      7 C13          4.6960     0.0000     1.8200 ce         1 3MS       0.773500
      8 C15          3.0570    -0.8400    -5.8460 c3         1 3MS      -0.090100
      9 C17          9.7290     3.9640     5.5630 c3         1 3MS      -0.243300
     10 C20          4.1640    -1.4500    -4.9840 c3         1 3MS      -0.075700
     11 O30          9.8120     3.2590     8.1350 o          1 3MS      -0.627800
     12 S33          8.8800     3.4340     7.0760 s6         1 3MS       1.324900
     13 O29          7.6860     4.1810     7.2660 o          1 3MS      -0.627800
     14 C3           6.3430     2.5060     5.5400 ca         1 3MS      -0.109000
     15 C9           6.7930     0.4480     3.7540 ca         1 3MS      -0.323500
     16 S32          7.0440    -0.8410     2.5670 sy         1 3MS       1.389200
     17 O27          7.8160    -0.2870     1.5110 o          1 3MS      -0.609300
     18 O28          7.4180    -2.0050     3.2910 o          1 3MS      -0.609300
     19 N23          5.5100    -1.1140     1.9600 nu         1 3MS      -0.814100
     20 N21          4.7780     1.0450     2.5890 nf         1 3MS      -0.653100
     21 C2           5.4520     2.3010     4.5100 ca         1 3MS      -0.098000
     22 C12          3.6920    -0.0010     0.7510 cc         1 3MS      -0.331800
     23 C11          2.3280     0.0000     1.0560 cd         1 3MS       0.287900
     24 O31          1.9150     0.0020     2.3420 oh         1 3MS      -0.488100
     25 C14          4.1010    -0.0020    -0.6570 c          1 3MS       0.731700
     26 O26          5.2830    -0.0030    -0.9480 o          1 3MS      -0.611500
     27 N24          3.1670    -0.0030    -1.6250 n          1 3MS      -0.364100
     28 N22          1.8020    -0.0020    -1.3120 na         1 3MS       0.109300
     29 C1          -0.4090    -0.0010    -1.3360 cc         1 3MS      -0.199000
     30 C19          3.5840    -0.0050    -3.0300 c3         1 3MS       0.104000
     31 C18          3.7280    -1.4480    -3.5170 c3         1 3MS      -0.102400
     32 C16          4.4290    -2.8870    -5.4360 c3         1 3MS      -0.090100
     33 H4          -0.6440     0.0010     0.8710 ha         1 3MS       0.166000
     34 H5           8.4800    -0.0560     4.9520 ha         1 3MS       0.147000
     35 H6           0.7130    -0.0030    -3.1940 h4         1 3MS       0.178000
     36 H15          3.2130    -1.1140    -6.8820 hc         1 3MS       0.036367
     37 H15A         3.0780     0.2390    -5.7500 hc         1 3MS       0.036367
     38 H15B         2.0950    -1.2130    -5.5150 hc         1 3MS       0.036367
     39 H17          9.0270     4.4750     4.9150 h1         1 3MS       0.103367
     40 H17A        10.1300     3.0980     5.0510 h1         1 3MS       0.103367
     41 H17B        10.5380     4.6380     5.8200 h1         1 3MS       0.103367
     42 H20          5.0690    -0.8650    -5.0920 hc         1 3MS       0.057700
     43 HN25         8.6550     1.1330     7.3030 hn         1 3MS       0.468800
     44 H3           6.1730     3.3110     6.2450 ha         1 3MS       0.187000
     45 HN23         5.3710    -1.8970     1.3520 hn         1 3MS       0.463800
     46 H2           4.5880     2.9460     4.4060 ha         1 3MS       0.160000
     47 HO31         1.6230    -0.8630     2.5800 ho         1 3MS       0.440000
     48 H1          -1.4310     0.0550    -1.6890 ha         1 3MS       0.166000
     49 H19          4.5360     0.5050    -3.1250 h1         1 3MS       0.078700
     50 H19A         2.8400     0.5060    -3.6290 h1         1 3MS       0.078700
     51 H18          4.4720    -1.9580    -2.9180 hc         1 3MS       0.055200
     52 H18A         2.7770    -1.9570    -3.4220 hc         1 3MS       0.055200
     53 H16          4.7730    -2.8850    -6.4630 hc         1 3MS       0.036367
     54 H16A         3.5140    -3.4630    -5.3620 hc         1 3MS       0.036367
     55 H16B         5.1870    -3.3310    -4.8020 hc         1 3MS       0.036367
     56 N25          8.3530     1.9010     6.7380 nu         1 3MS      -0.769500
@<TRIPOS>BOND
     1     1     6 2
     2     1    29 1
     3     2     5 ar
     4     2    15 ar
     5     3    28 1
     6     3    29 2
     7     4    15 ar
     8     4    20 1
     9     4    21 ar
    10     5    56 1
    11     5    14 ar
    12     6    23 1
    13     6    28 1
    14     7    19 1
    15     7    20 2
    16     7    22 1
    17     8    10 1
    18     9    12 1
    19    10    31 1
    20    10    32 1
    21    11    12 2
    22    12    13 2
    23    12    56 1
    24    14    21 ar
    25    15    16 1
    26    16    17 2
    27    16    18 2
    28    16    19 1
    29    22    23 2
    30    22    25 1
    31    23    24 1
    32    25    26 2
    33    25    27 1
    34    27    28 1
    35    27    30 1
    36    30    31 1
    37     1    33 1
    38     2    34 1
    39     3    35 1
    40     8    36 1
    41     8    37 1
    42     8    38 1
    43     9    39 1
    44     9    40 1
    45     9    41 1
    46    10    42 1
    47    56    43 1
    48    14    44 1
    49    19    45 1
    50    21    46 1
    51    24    47 1
    52    29    48 1
    53    30    49 1
    54    30    50 1
    55    31    51 1
    56    31    52 1
    57    32    53 1
    58    32    54 1
    59    32    55 1
@<TRIPOS>SUBSTRUCTURE
     1 3MS         1 TEMP              0 ****  ****    0 ROOT
