@<TRIPOS>MOLECULE
molecule
   12    12     1     0     0
SMALL
bcc


@<TRIPOS>ATOM
      1 C1           0.0000     0.0000     0.0000 c3         1 3MT      -0.022400
      2 N7           1.4650     0.0000     0.0000 na         1 3MT       0.044900
      3 C5           2.1090     0.0000     1.1480 cc         1 3MT      -0.151300
      4 C11          3.4660    -0.0050     1.1270 cd         1 3MT      -0.019100
      5 S10          3.7670     0.0030    -0.6350 ss         1 3MT       0.112200
      6 C8           2.1070     0.0060    -1.1450 cc         1 3MT      -0.002400
      7 H11A        -0.3610     0.9060     0.4720 h1         1 3MT       0.098033
      8 H12         -0.3610    -0.8610     0.5490 h1         1 3MT       0.098033
      9 H13         -0.3610    -0.0440    -1.0200 h1         1 3MT       0.098033
     10 H5           1.5690    -0.0020     2.0870 h4         1 3MT       0.229000
     11 H11          4.1710    -0.0070     1.9500 h4         1 3MT       0.252000
     12 H8           1.7040     0.0110    -2.1510 h5         1 3MT       0.263000
@<TRIPOS>BOND
     1     1     2 1   
     2     1     7 1   
     3     1     8 1   
     4     1     9 1   
     5     2     3 1   
     6     2     6 2   
     7     3     4 2   
     8     3    10 1   
     9     4     5 1   
    10     4    11 1   
    11     5     6 1   
    12     6    12 1   
@<TRIPOS>SUBSTRUCTURE
     1 3MT         1 TEMP              0 ****  ****    0 ROOT
