@<TRIPOS>MOLECULE
3MV
   35    34     1     0     0
SMALL
bcc


@<TRIPOS>ATOM
      1 CAA         0.3990    0.6880   -0.2460 c3        1 3MV     -0.092100
      2 CAF         1.7530    0.0650   -0.0250 c3        1 3MV     -0.076400
      3 CAI         2.1030   -0.0710    1.4510 c3        1 3MV     -0.068700
      4 CAC         1.1530   -1.0190    2.1530 c3        1 3MV     -0.089100
      5 CAH         3.5440   -0.5500    1.5980 c3        1 3MV     -0.074400
      6 CAK         4.1380   -0.2340    2.9690 c3        1 3MV     -0.057700
      7 CAG         4.8310   -1.4650    3.5420 c3        1 3MV     -0.076400
      8 CAB         6.0540   -1.8960    2.7750 c3        1 3MV     -0.093100
      9 CAJ         5.0720    0.9800    2.9130 c3        1 3MV     -0.062700
     10 CAE         4.3330    2.2160    2.4390 c3        1 3MV     -0.091600
     11 CAD         5.7020    1.2580    4.2630 c3        1 3MV     -0.091600
     12 H1          0.2290    0.8600   -1.3370 hc        1 3MV      0.032700
     13 H2         -0.4130    0.0210    0.1330 hc        1 3MV      0.032700
     14 H3          0.3230    1.6690    0.2820 hc        1 3MV      0.032700
     15 H4          1.7880   -0.9460   -0.5090 hc        1 3MV      0.037700
     16 H5          2.5340    0.7000   -0.5240 hc        1 3MV      0.037700
     17 H6          2.0110    0.9460    1.9290 hc        1 3MV      0.049700
     18 H7          0.1260   -0.5850    2.1920 hc        1 3MV      0.033033
     19 H8          1.4970   -1.2090    3.1990 hc        1 3MV      0.033033
     20 H9          1.1040   -1.9970    1.6160 hc        1 3MV      0.033033
     21 H10         4.1780   -0.0840    0.7980 hc        1 3MV      0.041700
     22 H11         3.5670   -1.6580    1.4170 hc        1 3MV      0.041700
     23 H12         3.2970    0.0250    3.6760 hc        1 3MV      0.047700
     24 H13         4.0880   -2.3080    3.5580 hc        1 3MV      0.037700
     25 H14         5.1130   -1.2620    4.6100 hc        1 3MV      0.037700
     26 H15         6.4210   -2.8790    3.1580 hc        1 3MV      0.033033
     27 H16         5.8230   -2.0040    1.6880 hc        1 3MV      0.033033
     28 H17         6.8770   -1.1480    2.8860 hc        1 3MV      0.033033
     29 H18         5.8950    0.7550    2.1760 hc        1 3MV      0.046700
     30 H19         3.9190    2.0630    1.4130 hc        1 3MV      0.033200
     31 H20         5.0270    3.0910    2.4100 hc        1 3MV      0.033200
     32 H21         3.4900    2.4580    3.1300 hc        1 3MV      0.033200
     33 H22         4.9210    1.3050    5.0600 hc        1 3MV      0.033200
     34 H23         6.2430    2.2350    4.2420 hc        1 3MV      0.033200
     35 H24         6.4350    0.4600    4.5300 hc        1 3MV      0.033200
@<TRIPOS>BOND
     1    1    2 1   
     2    1   12 1   
     3    1   13 1   
     4    1   14 1   
     5    2    3 1   
     6    2   15 1   
     7    2   16 1   
     8    3    4 1   
     9    3    5 1   
    10    3   17 1   
    11    4   18 1   
    12    4   19 1   
    13    4   20 1   
    14    5    6 1   
    15    5   21 1   
    16    5   22 1   
    17    6    7 1   
    18    6    9 1   
    19    6   23 1   
    20    7    8 1   
    21    7   24 1   
    22    7   25 1   
    23    8   26 1   
    24    8   27 1   
    25    8   28 1   
    26    9   10 1   
    27    9   11 1   
    28    9   29 1   
    29   10   30 1   
    30   10   31 1   
    31   10   32 1   
    32   11   33 1   
    33   11   34 1   
    34   11   35 1   
@<TRIPOS>SUBSTRUCTURE
     1 3MV         1 TEMP              0 ****  ****    0 ROOT
