@<TRIPOS>MOLECULE
molecule
   35    34     1     0     0
SMALL
bcc


@<TRIPOS>ATOM
      1 CAA          0.0000     0.0000     0.0000 c3         1 3MV      -0.092100
      2 CAF          1.5290     0.0000     0.0000 c3         1 3MV      -0.080400
      3 CAI          2.0400     0.0000     1.4420 c3         1 3MV      -0.072700
      4 CAC          1.6350    -1.3070     2.1270 c3         1 3MV      -0.093100
      5 CAH          3.5640     0.1250     1.4440 c3         1 3MV      -0.080400
      6 CAK          4.0630     0.2730     2.8830 c3         1 3MV      -0.063700
      7 CAG          4.2090    -1.1110     3.5170 c3         1 3MV      -0.096400
      8 CAB          5.2970    -1.8960     2.7830 c3         1 3MV      -0.095100
      9 CAJ          5.4200     0.9800     2.8830 c3         1 3MV      -0.075700
     10 CAE          5.2540     2.4050     2.3480 c3         1 3MV      -0.088100
     11 CAD          5.9690     1.0310     4.3090 c3         1 3MV      -0.088100
     12 H1          -0.3610    -1.0190     0.0750 hc         1 3MV       0.033033
     13 H2          -0.3610     0.4450    -0.9200 hc         1 3MV       0.033033
     14 H3          -0.3610     0.5740     0.8450 hc         1 3MV       0.033033
     15 H4           1.8900    -0.8840    -0.5110 hc         1 3MV       0.040700
     16 H5           1.8900     0.8850    -0.5110 hc         1 3MV       0.040700
     17 H6           1.6080     0.8370     1.9770 hc         1 3MV       0.049700
     18 H7           1.6240    -1.1630     3.2010 hc         1 3MV       0.036033
     19 H8           2.3470    -2.0830     1.8730 hc         1 3MV       0.036033
     20 H9           0.6470    -1.5990     1.7920 hc         1 3MV       0.036033
     21 H10          4.0000    -0.7620     1.0000 hc         1 3MV       0.045700
     22 H11          3.8550     0.9960     0.8700 hc         1 3MV       0.045700
     23 H12          3.3510     0.8580     3.4530 hc         1 3MV       0.050700
     24 H13          4.4820    -1.0030     4.5600 hc         1 3MV       0.047700
     25 H14          3.2680    -1.6430     3.4440 hc         1 3MV       0.047700
     26 H15          5.6410    -1.3250     1.9290 hc         1 3MV       0.033367
     27 H16          4.8940    -2.8430     2.4450 hc         1 3MV       0.033367
     28 H17          6.1280    -2.0760     3.4550 hc         1 3MV       0.033367
     29 H18          6.1100     0.4360     2.2500 hc         1 3MV       0.052700
     30 H19          5.1970     2.3800     1.2670 hc         1 3MV       0.033367
     31 H20          4.3450     2.8370     2.7480 hc         1 3MV       0.033367
     32 H21          6.1040     3.0050     2.6510 hc         1 3MV       0.033367
     33 H22          5.1770     1.3140     4.9920 hc         1 3MV       0.033367
     34 H23          6.3520     0.0560     4.5840 hc         1 3MV       0.033367
     35 H24          6.7680     1.7610     4.3630 hc         1 3MV       0.033367
@<TRIPOS>BOND
     1    11     9 1   
     2     7     6 1   
     3     7     8 1   
     4     5     3 1   
     5     5     6 1   
     6     9     6 1   
     7     9    10 1   
     8     2     3 1   
     9     2     1 1   
    10     3     4 1   
    11     1    12 1   
    12     1    13 1   
    13     1    14 1   
    14     2    15 1   
    15     2    16 1   
    16     3    17 1   
    17     4    18 1   
    18     4    19 1   
    19     4    20 1   
    20     5    21 1   
    21     5    22 1   
    22     6    23 1   
    23     7    24 1   
    24     7    25 1   
    25     8    26 1   
    26     8    27 1   
    27     8    28 1   
    28     9    29 1   
    29    10    30 1   
    30    10    31 1   
    31    10    32 1   
    32    11    33 1   
    33    11    34 1   
    34    11    35 1   
@<TRIPOS>SUBSTRUCTURE
     1 3MV         1 TEMP              0 ****  ****    0 ROOT
