@<TRIPOS>MOLECULE
molecule
   43    45     1     0     0
SMALL
bcc


@<TRIPOS>ATOM
      1 C10          0.0000     0.0000     0.0000 cc         1 3MW      -0.339300
      2 C21          2.9660    -3.5100    10.9570 ca         1 3MW      -0.104500
      3 C22          3.9670    -4.3750    11.3320 ca         1 3MW      -0.157000
      4 C24          5.1060    -3.9670     9.2440 ca         1 3MW      -0.157000
      5 C23          5.0420    -4.6080    10.4780 ca         1 3MW       0.170600
      6 N26          6.0540    -5.4840    10.8580 nv         1 3MW      -0.972200
      7 C25          4.1100    -3.0950     8.8660 ca         1 3MW      -0.104500
      8 C19          3.0260    -2.8640     9.7200 ca         1 3MW      -0.137600
      9 O20          0.8900    -1.1730    10.3390 o          1 3MW      -0.554100
     10 N13          1.7790    -0.8730     8.2330 ns         1 3MW      -0.543900
     11 C12          0.7190     0.0170     7.7500 c3         1 3MW       0.102000
     12 C14          0.9710     1.4160     8.2490 c          1 3MW       0.655100
     13 O15          1.9410     1.6490     8.9400 o          1 3MW      -0.551100
     14 N16          0.1190     2.4100     7.9280 ns         1 3MW      -0.467400
     15 O17          0.3550     3.7240     8.3970 oh         1 3MW      -0.357100
     16 C03          0.7090     0.0140     6.2440 ca         1 3MW      -0.128300
     17 C04          1.9030     0.0060     5.5460 ca         1 3MW      -0.096500
     18 C05          1.8970     0.0040     4.1650 ca         1 3MW      -0.140000
     19 C02         -0.4940     0.0140     5.5620 ca         1 3MW      -0.096500
     20 C01         -0.5060     0.0130     4.1810 ca         1 3MW      -0.140000
     21 C06          0.6910     0.0100     3.4770 ca         1 3MW       0.056800
     22 N07          0.6810     0.0080     2.0760 na         1 3MW       0.143300
     23 N08          1.8080     0.0000     1.2440 nd         1 3MW      -0.505800
     24 C09          1.4000     0.0000     0.0000 cc         1 3MW       0.345200
     25 C11         -0.4170     0.0040     1.2870 cd         1 3MW      -0.108300
     26 H1          -0.6370    -0.0020    -0.8760 ha         1 3MW       0.160000
     27 H3           3.9200    -4.8760    12.2910 ha         1 3MW       0.136500
     28 H4           5.9450    -4.1480     8.5830 ha         1 3MW       0.136500
     29 H5           5.8500    -6.4540    10.9970 hn         1 3MW       0.428300
     30 H6           6.9930    -5.1510    10.9580 hn         1 3MW       0.428300
     31 H7           4.1610    -2.5970     7.9060 ha         1 3MW       0.134000
     32 H8           2.5560    -1.0930     7.6410 hn         1 3MW       0.341500
     33 H9          -0.2390    -0.3310     8.1180 h1         1 3MW       0.091700
     34 H10         -0.7040     2.2100     7.3930 hn         1 3MW       0.318500
     35 H11         -0.4560     4.2040     8.4120 ho         1 3MW       0.397000
     36 H12          2.8430     0.0020     6.0830 ha         1 3MW       0.141000
     37 H13          2.8330     0.0010     3.6190 ha         1 3MW       0.154000
     38 H14         -1.4280     0.0160     6.1110 ha         1 3MW       0.141000
     39 H15         -1.4480     0.0150     3.6470 ha         1 3MW       0.154000
     40 H16          2.0350    -0.0040    -0.8770 h4         1 3MW       0.054100
     41 H17         -1.4460     0.0050     1.6250 h4         1 3MW       0.173000
     42 C18          1.6860    -1.4300     9.4560 c          1 3MW       0.663700
     43 H2           2.1280    -3.3310    11.6210 ha         1 3MW       0.134000
@<TRIPOS>BOND
     1    15    14 1
     2     3     2 ar
     3     3     5 ar
     4     6     5 1
     5     2     8 ar
     6    14    12 1
     7     5     4 ar
     8    13    12 2
     9    12    11 1
    10    17    18 ar
    11    17    16 ar
    12    18    21 ar
    13    10    11 1
    14    10    42 1
    15     8    42 1
    16     8     7 ar
    17    11    16 1
    18    25     1 2
    19    25    22 1
    20    16    19 ar
    21     4     7 ar
    22    42     9 2
    23    21    22 1
    24    21    20 ar
    25     1    24 1
    26    22    23 1
    27    19    20 ar
    28    24    23 2
    29     1    26 1
    30     2    43 1
    31     3    27 1
    32     4    28 1
    33     6    29 1
    34     6    30 1
    35     7    31 1
    36    10    32 1
    37    11    33 1
    38    14    34 1
    39    15    35 1
    40    17    36 1
    41    18    37 1
    42    19    38 1
    43    20    39 1
    44    24    40 1
    45    25    41 1
@<TRIPOS>SUBSTRUCTURE
     1 3MW         1 TEMP              0 ****  ****    0 ROOT
