@<TRIPOS>MOLECULE
3MW
   43    43     1     0     0
SMALL
bcc


@<TRIPOS>ATOM
      1 C10        -1.8560   -0.3890    1.0610 c3        1 3MW     -0.105000
      2 C21         3.7540   -3.8750    8.7910 c2        1 3MW      0.074000
      3 C22         3.4260   -4.8210    9.7940 c2        1 3MW     -0.358000
      4 C24         5.1080   -2.0220   11.1070 c1        1 3MW      0.237000
      5 C23         2.7180   -4.6430   10.9540 c2        1 3MW      0.106000
      6 N26         2.0910   -3.5230   11.3730 n3        1 3MW     -0.358000
      7 C25         4.2190   -1.8300   10.1570 c2        1 3MW     -0.498000
      8 C19         4.0460   -2.5460    8.9120 c2        1 3MW     -0.183000
      9 O20         4.6080   -2.2920    6.5810 o         1 3MW     -0.270000
     10 N13         4.1530   -0.3070    7.6830 n4        1 3MW      0.033000
     11 C12         2.7820    0.1410    7.5050 c2        1 3MW     -0.500000
     12 C14         2.2160    0.8670    8.6230 c2        1 3MW      0.320000
     13 O15         2.7230    0.8290    9.7790 o         1 3MW     -0.466000
     14 N16         1.1900    1.8320    8.3890 n         1 3MW     -0.173000
     15 O17         0.4310    2.0910    9.4580 oh        1 3MW     -0.246000
     16 C03         2.1260   -0.0810    6.2600 c2        1 3MW      0.097000
     17 C04         2.9310   -0.1050    5.0010 c3        1 3MW     -0.196000
     18 C05         2.2230   -0.1690    3.7320 c1        1 3MW     -0.153000
     19 C02         0.7600   -0.2580    6.1660 c2        1 3MW     -0.290000
     20 C01         0.1000   -0.3450    4.9200 c2        1 3MW      0.047000
     21 C06         0.8170   -0.2440    3.7290 c2        1 3MW     -0.123000
     22 N07         0.1620   -0.2660    2.4630 n3        1 3MW     -0.105000
     23 N08        -0.4340   -0.2300   -1.1240 n1        1 3MW     -0.063000
     24 C09        -1.0700   -0.3010   -0.1520 c1        1 3MW     -0.168000
     25 C11        -1.1380   -0.3650    2.3600 c1        1 3MW     -0.173000
     26 H1         -2.4540   -1.3470    1.0440 hc        1 3MW      0.141500
     27 H3          3.7450   -5.8560    9.5730 ha        1 3MW      0.153000
     28 H4          2.5830   -5.5240   11.6210 h4        1 3MW      0.145000
     29 H5          2.1330   -2.6810   10.8500 hn        1 3MW      0.237500
     30 H6          1.6010   -3.5160   12.2330 hn        1 3MW      0.237500
     31 H7          3.5030   -0.9820   10.3470 ha        1 3MW      0.242000
     32 H8          4.7240    0.0730    6.9180 hn        1 3MW      0.240500
     33 H9          4.4920    0.0530    8.5870 hn        1 3MW      0.240500
     34 H10         0.5710    1.6050    7.6190 hn        1 3MW      0.224000
     35 H11         1.0100    2.5670   10.0860 ho        1 3MW      0.234000
     36 H12         3.5880    0.8130    4.9630 hc        1 3MW      0.159000
     37 H13         3.6200   -1.0060    4.9960 hc        1 3MW      0.159000
     38 H14        -0.9950   -0.4980    4.9050 ha        1 3MW      0.166000
     39 H15         0.1440   -0.3670    7.0720 ha        1 3MW      0.133000
     40 H16         0.8050   -0.2000    1.6900 hn        1 3MW      0.201000
     41 H17        -2.5910    0.4670    1.0870 hc        1 3MW      0.141500
     42 C18         4.2840   -1.8100    7.6690 c2        1 3MW      0.309000
     43 H2          3.8050   -4.3050    7.7640 ha        1 3MW      0.148000
@<TRIPOS>BOND
     1    1   24 1   
     2    1   25 1   
     3    1   26 1   
     4    1   41 1   
     5    2    3 1   
     6    2    8 1   
     7    2   43 1   
     8    3    5 1   
     9    3   27 1   
    10    4    7 1   
    11    5    6 1   
    12    5   28 1   
    13    6   29 1   
    14    6   30 1   
    15    7    8 1   
    16    7   31 1   
    17    8   42 1   
    18    9   42 1   
    19   10   11 1   
    20   10   32 1   
    21   10   33 1   
    22   10   42 1   
    23   11   12 1   
    24   11   16 1   
    25   12   13 1   
    26   12   14 1   
    27   14   15 1   
    28   14   34 1   
    29   15   35 1   
    30   16   17 1   
    31   16   19 1   
    32   17   18 1   
    33   17   36 1   
    34   17   37 1   
    35   18   21 1   
    36   19   20 1   
    37   19   39 1   
    38   20   21 1   
    39   20   38 1   
    40   21   22 1   
    41   22   25 1   
    42   22   40 1   
    43   23   24 1   
@<TRIPOS>SUBSTRUCTURE
     1 3MW         1 TEMP              0 ****  ****    0 ROOT
