@<TRIPOS>MOLECULE
molecule
   44    44     1     0     0
SMALL
bcc


@<TRIPOS>ATOM
      1 C1           0.0000     0.0000     0.0000 c          1 3MX       0.576700
      2 C3           1.4680     0.0000     0.0000 ca         1 3MX      -0.159600
      3 C4           2.1710     0.0000     1.2110 ca         1 3MX      -0.113500
      4 C5           3.5520    -0.0010     1.2070 ca         1 3MX       0.081100
      5 C6           4.2460    -0.0000    -0.0010 ca         1 3MX       0.093100
      6 C7           3.5510    -0.0000    -1.2080 ca         1 3MX       0.081100
      7 C8           2.1700    -0.0060    -1.2120 ca         1 3MX      -0.113500
      8 O9           4.2350     0.0000     2.3820 oh         1 3MX      -0.499600
      9 O10          5.6040    -0.0010    -0.0020 oh         1 3MX      -0.490100
     10 O11          4.2330     0.0010    -2.3840 oh         1 3MX      -0.499600
     11 O12         -0.6060     0.0050     1.0500 o          1 3MX      -0.521100
     12 C13         -0.7540    -0.0000    -1.3050 c3         1 3MX      -0.178400
     13 C14         -2.2580    -0.0010    -1.0250 c3         1 3MX      -0.072400
     14 C15         -3.0230    -0.0000    -2.3500 c3         1 3MX      -0.084400
     15 C16         -4.5270    -0.0010    -2.0700 c3         1 3MX      -0.080400
     16 C17         -5.2930     0.0000    -3.3950 c3         1 3MX      -0.082400
     17 C18         -6.7970    -0.0000    -3.1150 c3         1 3MX      -0.082400
     18 C19         -7.5630    -0.0010    -4.4390 c3         1 3MX      -0.081400
     19 C20         -9.0670    -0.0010    -4.1590 c3         1 3MX      -0.084400
     20 C21         -9.8320    -0.0000    -5.4840 c3         1 3MX      -0.092100
     21 H1           1.6320    -0.0000     2.1510 ha         1 3MX       0.158000
     22 H2           1.6310    -0.0060    -2.1520 ha         1 3MX       0.158000
     23 H3           4.1790    -0.8540     2.7790 ho         1 3MX       0.417000
     24 H4           5.9180    -0.8900     0.0310 ho         1 3MX       0.417000
     25 H5           4.3160    -0.8830    -2.7010 ho         1 3MX       0.417000
     26 H6          -0.4930     0.8840    -1.8730 hc         1 3MX       0.066200
     27 H7          -0.4920    -0.8850    -1.8730 hc         1 3MX       0.066200
     28 H8          -2.5200    -0.8860    -0.4580 hc         1 3MX       0.056200
     29 H9          -2.5200     0.8830    -0.4560 hc         1 3MX       0.056200
     30 H10         -2.7620    -0.8840    -2.9180 hc         1 3MX       0.039700
     31 H11         -2.7620     0.8850    -2.9170 hc         1 3MX       0.039700
     32 H12         -4.7890    -0.8860    -1.5020 hc         1 3MX       0.044200
     33 H13         -4.7890     0.8840    -1.5010 hc         1 3MX       0.044200
     34 H14         -5.0320    -0.8840    -3.9640 hc         1 3MX       0.040200
     35 H15         -5.0320     0.8850    -3.9630 hc         1 3MX       0.040200
     36 H16         -7.0590    -0.8850    -2.5470 hc         1 3MX       0.041700
     37 H17         -7.3010    -0.8850    -5.0070 hc         1 3MX       0.040700
     38 H18         -9.3280    -0.8860    -3.5920 hc         1 3MX       0.040200
     39 H19         -9.3280     0.8830    -3.5900 hc         1 3MX       0.040200
     40 H20        -10.8970    -0.0240    -5.2870 hc         1 3MX       0.032700
     41 H21         -9.5530    -0.8720    -6.0630 hc         1 3MX       0.032700
     42 H22         -9.5880     0.8960    -6.0420 hc         1 3MX       0.032700
     43 H23         -7.0590     0.8840    -2.5470 hc         1 3MX       0.041700
     44 H24         -7.3020     0.8840    -5.0070 hc         1 3MX       0.040700
@<TRIPOS>BOND
     1    10     6 1   
     2    11     1 2   
     3     7     6 ar  
     4     7     2 ar  
     5    13    14 1   
     6    13    12 1   
     7     6     5 ar  
     8     1    12 1   
     9     1     2 1   
    10    14    15 1   
    11    15    16 1   
    12    20    19 1   
    13     2     3 ar  
    14    19    18 1   
    15     5     9 1   
    16     5     4 ar  
    17    16    17 1   
    18     3     4 ar  
    19    18    17 1   
    20     4     8 1   
    21     3    21 1   
    22     7    22 1   
    23     8    23 1   
    24     9    24 1   
    25    10    25 1   
    26    12    26 1   
    27    12    27 1   
    28    13    28 1   
    29    13    29 1   
    30    14    30 1   
    31    14    31 1   
    32    15    32 1   
    33    15    33 1   
    34    16    34 1   
    35    16    35 1   
    36    17    36 1   
    37    18    37 1   
    38    19    38 1   
    39    19    39 1   
    40    20    40 1   
    41    20    41 1   
    42    20    42 1   
    43    17    43 1   
    44    18    44 1   
@<TRIPOS>SUBSTRUCTURE
     1 3MX         1 TEMP              0 ****  ****    0 ROOT
