@<TRIPOS>MOLECULE
3MX
   44    44     1     0     0
SMALL
bcc


@<TRIPOS>ATOM
      1 C1         -0.0160   -0.0330    0.0660 c         1 3MX      0.579700
      2 C3          1.4620   -0.0400   -0.0500 ca        1 3MX     -0.139600
      3 C4          2.2160   -0.0410    1.1310 ca        1 3MX     -0.140000
      4 C5          3.6110   -0.0480    1.0660 ca        1 3MX      0.094600
      5 C6          4.2690   -0.0540   -0.1770 ca        1 3MX      0.048100
      6 C7          3.5010   -0.0540   -1.3580 ca        1 3MX      0.094600
      7 C8          2.1000   -0.0470   -1.2930 ca        1 3MX     -0.140000
      8 O9          4.4250   -0.0490    2.1800 oh        1 3MX     -0.503100
      9 O10         5.6380   -0.0610   -0.3190 oh        1 3MX     -0.509100
     10 O11         4.0690   -0.0600   -2.6090 oh        1 3MX     -0.503100
     11 O12        -0.5680   -0.0300    1.1740 o         1 3MX     -0.535100
     12 C13        -0.7980   -0.0300   -1.2160 c3        1 3MX     -0.175400
     13 C14        -2.2930   -0.0210   -0.9800 c3        1 3MX     -0.075400
     14 C15        -3.0510   -0.0180   -2.2900 c3        1 3MX     -0.079400
     15 C16        -4.5460   -0.0090   -2.0550 c3        1 3MX     -0.078400
     16 C17        -5.3070   -0.0060   -3.3630 c3        1 3MX     -0.079400
     17 C18        -6.8030    0.0020   -3.1290 c3        1 3MX     -0.079400
     18 C19        -7.5640    0.0050   -4.4370 c3        1 3MX     -0.079400
     19 C20        -9.0600    0.0120   -4.2030 c3        1 3MX     -0.080400
     20 C21        -9.8220    0.0150   -5.5030 c3        1 3MX     -0.092100
     21 H1          1.7000   -0.0360    2.1040 ha        1 3MX      0.160500
     22 H2          1.5340   -0.0460   -2.2360 ha        1 3MX      0.160500
     23 H3          3.8550   -0.0440    2.9630 ho        1 3MX      0.439000
     24 H4          6.0280   -0.0610    0.5700 ho        1 3MX      0.451000
     25 H5          5.0340   -0.0640   -2.5010 ho        1 3MX      0.439000
     26 H6         -0.5020    0.8750   -1.8130 hc        1 3MX      0.069700
     27 H7         -0.5130   -0.9390   -1.8110 hc        1 3MX      0.069700
     28 H8         -2.5700    0.8820   -0.3740 hc        1 3MX      0.055700
     29 H9         -2.5800   -0.9190   -0.3720 hc        1 3MX      0.055700
     30 H10        -2.7600    0.8830   -2.8920 hc        1 3MX      0.038700
     31 H11        -2.7700   -0.9220   -2.8910 hc        1 3MX      0.038700
     32 H12        -4.8370   -0.9100   -1.4530 hc        1 3MX      0.042700
     33 H13        -4.8270    0.8950   -1.4530 hc        1 3MX      0.042700
     34 H14        -5.0170    0.8950   -3.9650 hc        1 3MX      0.039700
     35 H15        -5.0260   -0.9100   -3.9650 hc        1 3MX      0.039700
     36 H16        -7.0930   -0.8990   -2.5270 hc        1 3MX      0.039700
     37 H17        -7.2740    0.9060   -5.0390 hc        1 3MX      0.039700
     38 H18        -9.3390    0.9160   -3.6000 hc        1 3MX      0.038700
     39 H19        -9.3480   -0.8890   -3.6000 hc        1 3MX      0.038700
     40 H20       -10.9220    0.0210   -5.3080 hc        1 3MX      0.032700
     41 H21        -9.5760   -0.8910   -6.1070 hc        1 3MX      0.032700
     42 H22        -9.5670    0.9190   -6.1080 hc        1 3MX      0.032700
     43 H23        -7.0840    0.9060   -2.5270 hc        1 3MX      0.039700
     44 H24        -7.2830   -0.8990   -5.0390 hc        1 3MX      0.039700
@<TRIPOS>BOND
     1    1    2 1   
     2    1   11 2   
     3    1   12 1   
     4    2    3 ar  
     5    2    7 ar  
     6    3    4 ar  
     7    3   21 1   
     8    4    5 ar  
     9    4    8 1   
    10    5    6 ar  
    11    5    9 1   
    12    6    7 ar  
    13    6   10 1   
    14    7   22 1   
    15    8   23 1   
    16    9   24 1   
    17   10   25 1   
    18   12   13 1   
    19   12   26 1   
    20   12   27 1   
    21   13   14 1   
    22   13   28 1   
    23   13   29 1   
    24   14   15 1   
    25   14   30 1   
    26   14   31 1   
    27   15   16 1   
    28   15   32 1   
    29   15   33 1   
    30   16   17 1   
    31   16   34 1   
    32   16   35 1   
    33   17   18 1   
    34   17   36 1   
    35   17   43 1   
    36   18   19 1   
    37   18   37 1   
    38   18   44 1   
    39   19   20 1   
    40   19   38 1   
    41   19   39 1   
    42   20   40 1   
    43   20   41 1   
    44   20   42 1   
@<TRIPOS>SUBSTRUCTURE
     1 3MX         1 TEMP              0 ****  ****    0 ROOT
