@<TRIPOS>MOLECULE
molecule
   41    41     1     0     0
SMALL
bcc


@<TRIPOS>ATOM
      1 C4           0.0000     0.0000     0.0000 ca         1 3MZ      -0.181000
      2 C13          6.5560     0.0000    -1.1400 c3         1 3MZ      -0.084400
      3 C15          8.8260    -0.0000    -2.1850 c3         1 3MZ      -0.082400
      4 C17         11.0950     0.0000    -3.2310 c3         1 3MZ      -0.084400
      5 C2           2.0700     0.0000     1.2120 ca         1 3MZ      -0.201600
      6 C11          4.2880    -0.0000    -0.0940 c3         1 3MZ      -0.177400
      7 C12          5.7910    -0.0010     0.1860 c3         1 3MZ      -0.072400
      8 C16         10.3300    -0.0000    -1.9060 c3         1 3MZ      -0.081400
      9 C18         12.5980    -0.0010    -2.9520 c3         1 3MZ      -0.092100
     10 C1           3.5340    -0.0010     1.2110 c          1 3MZ       0.571700
     11 C3           1.3650     0.0000     0.0000 ca         1 3MZ      -0.071000
     12 C5          -0.7050     0.0050     1.2000 ca         1 3MZ       0.126100
     13 C6          -0.0240     0.0040     2.4130 ca         1 3MZ       0.031100
     14 C7           1.3640    -0.0010     2.4280 ca         1 3MZ       0.161100
     15 O8           2.0350    -0.0030     3.6070 oh         1 3MZ      -0.488100
     16 O9          -0.7180     0.0090     3.5840 oh         1 3MZ      -0.510100
     17 O10         -2.0630     0.0100     1.1860 oh         1 3MZ      -0.512100
     18 C14          8.0610    -0.0010    -0.8600 c3         1 3MZ      -0.080400
     19 O19          4.1410    -0.0020     2.2620 o          1 3MZ      -0.503100
     20 H1          -0.5380     0.0000    -0.9400 ha         1 3MZ       0.146000
     21 H2           6.2940    -0.8840    -1.7080 hc         1 3MZ       0.039200
     22 H3           6.2950     0.8850    -1.7070 hc         1 3MZ       0.039200
     23 H4           8.5640    -0.8840    -2.7540 hc         1 3MZ       0.040200
     24 H5           8.5640     0.8850    -2.7530 hc         1 3MZ       0.040200
     25 H6          10.8320    -0.8830    -3.8000 hc         1 3MZ       0.039700
     26 H7          10.8330     0.8860    -3.7990 hc         1 3MZ       0.039700
     27 H8           4.0260     0.8840    -0.6610 hc         1 3MZ       0.062700
     28 H9           4.0260    -0.8850    -0.6620 hc         1 3MZ       0.062700
     29 H10          6.0530     0.8840     0.7540 hc         1 3MZ       0.056700
     30 H11          6.0530    -0.8850     0.7530 hc         1 3MZ       0.056700
     31 H12         10.5920    -0.8850    -1.3390 hc         1 3MZ       0.041700
     32 H13         10.5920     0.8840    -1.3380 hc         1 3MZ       0.041700
     33 H14         13.1400     0.0000    -3.8910 hc         1 3MZ       0.032367
     34 H15         12.8600    -0.8860    -2.3850 hc         1 3MZ       0.032367
     35 H16         12.8610     0.8830    -2.3830 hc         1 3MZ       0.032367
     36 H17          1.9050    -0.0040    -0.9390 ha         1 3MZ       0.142000
     37 H18          1.9460    -0.8470     4.0180 ho         1 3MZ       0.436000
     38 H19         -0.8840     0.9000     3.8470 ho         1 3MZ       0.432000
     39 H20         -2.3780    -0.8510     0.9670 ho         1 3MZ       0.430000
     40 H21          8.3240     0.8830    -0.2910 hc         1 3MZ       0.044200
     41 H22          8.3230    -0.8860    -0.2930 hc         1 3MZ       0.044200
@<TRIPOS>BOND
     1    15    14 1
     2     7     6 1
     3     7     2 1
     4    16    13 1
     5     6    10 1
     6    14    13 ar
     7    14     5 ar
     8    18     2 1
     9    18     3 1
    10    13    12 ar
    11    10     5 1
    12    10    19 2
    13     5    11 ar
    14     8     3 1
    15     8     4 1
    16    12    17 1
    17    12     1 ar
    18     4     9 1
    19    11     1 ar
    20     1    20 1
    21     2    21 1
    22     2    22 1
    23     3    23 1
    24     3    24 1
    25     4    25 1
    26     4    26 1
    27     6    27 1
    28     6    28 1
    29     7    29 1
    30     7    30 1
    31     8    31 1
    32     8    32 1
    33     9    33 1
    34     9    34 1
    35     9    35 1
    36    11    36 1
    37    15    37 1
    38    16    38 1
    39    17    39 1
    40    18    40 1
    41    18    41 1
@<TRIPOS>SUBSTRUCTURE
     1 3MZ         1 TEMP              0 ****  ****    0 ROOT
