@<TRIPOS>MOLECULE
3MZ
   41    41     1     0     0
SMALL
bcc


@<TRIPOS>ATOM
      1 C4         -0.2660   -1.5190    1.4390 ca        1 3MZ     -0.222000
      2 C13         6.6730    0.1850   -0.6130 c3        1 3MZ     -0.078400
      3 C15         8.9350    0.5900   -1.5960 c3        1 3MZ     -0.079400
      4 C17        11.1980    0.9940   -2.5790 c3        1 3MZ     -0.080400
      5 C2          2.0450   -0.7970    1.1140 ca        1 3MZ     -0.210600
      6 C11         4.4140   -0.2190    0.3630 c3        1 3MZ     -0.168400
      7 C12         5.7120   -0.8560   -0.0820 c3        1 3MZ     -0.075400
      8 C16        10.2330   -0.0440   -2.0480 c3        1 3MZ     -0.079400
      9 C18        12.4920    0.3670   -3.0300 c3        1 3MZ     -0.092100
     10 C1          3.4540   -1.2180    0.9380 c         1 3MZ      0.593700
     11 C3          1.0810   -1.8070    1.2720 ca        1 3MZ     -0.041000
     12 C5         -0.6840   -0.1810    1.4590 ca        1 3MZ      0.110100
     13 C6          0.2530    0.8530    1.3140 ca        1 3MZ     -0.000900
     14 C7          1.6220    0.5450    1.1400 ca        1 3MZ      0.182100
     15 O8          2.5500    1.5450    1.0010 oh        1 3MZ     -0.493100
     16 O9         -0.0800    2.1930    1.3220 oh        1 3MZ     -0.516100
     17 O10        -1.9960    0.2040    1.6210 oh        1 3MZ     -0.511100
     18 C14         7.9710   -0.4490   -1.0660 c3        1 3MZ     -0.078400
     19 O19         3.8050   -2.3650    1.2470 o         1 3MZ     -0.548100
     20 H1         -1.0020   -2.3270    1.5560 ha        1 3MZ      0.144000
     21 H2          6.2010    0.7310   -1.4730 hc        1 3MZ      0.038200
     22 H3          6.8840    0.9450    0.1850 hc        1 3MZ      0.038200
     23 H4          9.1460    1.3490   -0.7970 hc        1 3MZ      0.038700
     24 H5          8.4640    1.1370   -2.4550 hc        1 3MZ      0.038700
     25 H6         10.7240    1.5400   -3.4370 hc        1 3MZ      0.037700
     26 H7         11.4060    1.7540   -1.7800 hc        1 3MZ      0.037700
     27 H8          4.6150    0.5580    1.1500 hc        1 3MZ      0.077700
     28 H9          3.9230    0.3070   -0.4990 hc        1 3MZ      0.077700
     29 H10         5.5010   -1.6210   -0.8750 hc        1 3MZ      0.052200
     30 H11         6.1760   -1.4030    0.7820 hc        1 3MZ      0.052200
     31 H12        10.0220   -0.8040   -2.8470 hc        1 3MZ      0.039700
     32 H13        10.7040   -0.5900   -1.1890 hc        1 3MZ      0.039700
     33 H14        13.1880    1.1490   -3.4170 hc        1 3MZ      0.032367
     34 H15        12.3070   -0.3750   -3.8440 hc        1 3MZ      0.032367
     35 H16        12.9910   -0.1610   -2.1820 hc        1 3MZ      0.032367
     36 H17         1.4230   -2.8570    1.2670 ha        1 3MZ      0.164000
     37 H18         2.0970    2.4010    1.0850 ho        1 3MZ      0.446000
     38 H19        -1.0280    2.2590    1.5120 ho        1 3MZ      0.448000
     39 H20        -2.5290   -0.5970    1.7300 ho        1 3MZ      0.437000
     40 H21         8.4410   -0.9960   -0.2060 hc        1 3MZ      0.041200
     41 H22         7.7600   -1.2090   -1.8640 hc        1 3MZ      0.041200
@<TRIPOS>BOND
     1    1   11 ar  
     2    1   12 ar  
     3    1   20 1   
     4    2    7 1   
     5    2   18 1   
     6    2   21 1   
     7    2   22 1   
     8    3    8 1   
     9    3   18 1   
    10    3   23 1   
    11    3   24 1   
    12    4    8 1   
    13    4    9 1   
    14    4   25 1   
    15    4   26 1   
    16    5   10 1   
    17    5   11 ar  
    18    5   14 ar  
    19    6    7 1   
    20    6   10 1   
    21    6   27 1   
    22    6   28 1   
    23    7   29 1   
    24    7   30 1   
    25    8   31 1   
    26    8   32 1   
    27    9   33 1   
    28    9   34 1   
    29    9   35 1   
    30   10   19 2   
    31   11   36 1   
    32   12   13 ar  
    33   12   17 1   
    34   13   14 ar  
    35   13   16 1   
    36   14   15 1   
    37   15   37 1   
    38   16   38 1   
    39   17   39 1   
    40   18   40 1   
    41   18   41 1   
@<TRIPOS>SUBSTRUCTURE
     1 3MZ         1 TEMP              0 ****  ****    0 ROOT
