@<TRIPOS>MOLECULE
3N0
   32    32     1     0     0
SMALL
bcc


@<TRIPOS>ATOM
      1 C1         -0.0250    0.0430   -0.0540 c         1 3N0      0.579700
      2 C2          1.4520   -0.0220    0.0540 ca        1 3N0     -0.139600
      3 C3          2.0950   -0.0900    1.2930 ca        1 3N0     -0.140000
      4 C4          3.4940   -0.1510    1.3510 ca        1 3N0      0.094600
      5 C5          4.2580   -0.1430    0.1680 ca        1 3N0      0.048100
      6 C6          3.5950   -0.0740   -1.0720 ca        1 3N0      0.094600
      7 C7          2.2020   -0.0140   -1.1300 ca        1 3N0     -0.140000
      8 C11        -0.8030    0.0100    1.2310 c3        1 3N0     -0.175400
      9 C12        -2.2980    0.0650    1.0020 c3        1 3N0     -0.075400
     10 O8          4.0670   -0.2160    2.5980 oh        1 3N0     -0.503100
     11 O9          5.6260   -0.2050    0.3010 oh        1 3N0     -0.509100
     12 O10         4.4040   -0.0710   -2.1890 oh        1 3N0     -0.503100
     13 C13        -3.0510    0.0320    2.3140 c3        1 3N0     -0.079400
     14 C14        -4.5470    0.0860    2.0880 c3        1 3N0     -0.079400
     15 C15        -5.3040    0.0530    3.3900 c3        1 3N0     -0.093100
     16 O16        -0.5800    0.1210   -1.1580 o         1 3N0     -0.535100
     17 H1          1.5330   -0.0980    2.2390 ha        1 3N0      0.160500
     18 H2          1.6820    0.0410   -2.1000 ha        1 3N0      0.160500
     19 H3         -0.5380   -0.9310    1.7850 hc        1 3N0      0.069700
     20 H4         -0.4830    0.8810    1.8640 hc        1 3N0      0.069700
     21 H5         -2.5540    1.0000    0.4360 hc        1 3N0      0.055200
     22 H6         -2.6090   -0.7990    0.3580 hc        1 3N0      0.055200
     23 H7          5.0300   -0.2520    2.4850 ho        1 3N0      0.439000
     24 H8          6.0120   -0.1910   -0.5890 ho        1 3N0      0.451000
     25 H9          3.8320   -0.0190   -2.9690 ho        1 3N0      0.439000
     26 H10        -2.7900   -0.9050    2.8750 hc        1 3N0      0.038700
     27 H11        -2.7360    0.8980    2.9530 hc        1 3N0      0.038700
     28 H12        -4.8590   -0.7800    1.4470 hc        1 3N0      0.040700
     29 H13        -4.8050    1.0220    1.5250 hc        1 3N0      0.040700
     30 H14        -5.0780   -0.8840    3.9540 hc        1 3N0      0.033033
     31 H15        -6.4030    0.0940    3.2000 hc        1 3N0      0.033033
     32 H16        -5.0240    0.9230    4.0320 hc        1 3N0      0.033033
@<TRIPOS>BOND
     1    1    2 1   
     2    1    8 1   
     3    1   16 2   
     4    2    3 ar  
     5    2    7 ar  
     6    3    4 ar  
     7    3   17 1   
     8    4    5 ar  
     9    4   10 1   
    10    5    6 ar  
    11    5   11 1   
    12    6    7 ar  
    13    6   12 1   
    14    7   18 1   
    15    8    9 1   
    16    8   19 1   
    17    8   20 1   
    18    9   13 1   
    19    9   21 1   
    20    9   22 1   
    21   10   23 1   
    22   11   24 1   
    23   12   25 1   
    24   13   14 1   
    25   13   26 1   
    26   13   27 1   
    27   14   15 1   
    28   14   28 1   
    29   14   29 1   
    30   15   30 1   
    31   15   31 1   
    32   15   32 1   
@<TRIPOS>SUBSTRUCTURE
     1 3N0         1 TEMP              0 ****  ****    0 ROOT
