@<TRIPOS>MOLECULE
molecule
   32    32     1     0     0
SMALL
bcc


@<TRIPOS>ATOM
      1 C1           0.0000     0.0000     0.0000 c          1 3N0       0.576700
      2 C2           1.4690     0.0000     0.0000 ca         1 3N0      -0.156600
      3 C3           2.1700     0.0000     1.2110 ca         1 3N0      -0.119500
      4 C4           3.5520    -0.0000     1.2070 ca         1 3N0       0.084100
      5 C5           4.2460     0.0010    -0.0000 ca         1 3N0       0.097100
      6 C6           3.5510     0.0020    -1.2070 ca         1 3N0       0.084100
      7 C7           2.1700    -0.0050    -1.2120 ca         1 3N0      -0.119500
      8 C11         -0.7530     0.0120     1.3050 c3         1 3N0      -0.178400
      9 C12         -2.2570     0.0090     1.0250 c3         1 3N0      -0.073400
     10 O8           4.2340    -0.0010     2.3840 oh         1 3N0      -0.499100
     11 O9           5.6050     0.0020    -0.0000 oh         1 3N0      -0.490100
     12 O10          4.2340     0.0040    -2.3840 oh         1 3N0      -0.499100
     13 C13         -3.0220     0.0210     2.3510 c3         1 3N0      -0.084400
     14 C14         -4.5270     0.0190     2.0710 c3         1 3N0      -0.082400
     15 C15         -5.2920     0.0310     3.3960 c3         1 3N0      -0.092100
     16 O16         -0.6070    -0.0040    -1.0510 o          1 3N0      -0.522100
     17 H1           1.6300    -0.0010     2.1500 ha         1 3N0       0.157000
     18 H2           1.6300    -0.0040    -2.1510 ha         1 3N0       0.157000
     19 H3          -0.4920     0.9010     1.8650 hc         1 3N0       0.066200
     20 H4          -0.4920    -0.8680     1.8810 hc         1 3N0       0.066200
     21 H5          -2.5190    -0.8800     0.4650 hc         1 3N0       0.056200
     22 H6          -2.5190     0.8890     0.4490 hc         1 3N0       0.056200
     23 H7           4.2150    -0.8670     2.7580 ho         1 3N0       0.417000
     24 H8           5.9200    -0.8870    -0.0220 ho         1 3N0       0.417000
     25 H9           4.1310    -0.8320    -2.8090 ho         1 3N0       0.417000
     26 H10         -2.7600    -0.8580     2.9270 hc         1 3N0       0.039700
     27 H11         -2.7600     0.9110     2.9110 hc         1 3N0       0.039700
     28 H12         -4.7890    -0.8710     1.5110 hc         1 3N0       0.042700
     29 H13         -4.7890     0.8980     1.4950 hc         1 3N0       0.042700
     30 H14         -5.0350     0.9230     3.9530 hc         1 3N0       0.032700
     31 H15         -5.0260    -0.8460     3.9740 hc         1 3N0       0.032700
     32 H16         -6.3570     0.0230     3.1970 hc         1 3N0       0.032700
@<TRIPOS>BOND
     1    10     4 1   
     2     9     8 1   
     3     9    13 1   
     4     3     4 ar  
     5     3     2 ar  
     6     4     5 ar  
     7     8     1 1   
     8    13    14 1   
     9     1     2 1   
    10     1    16 2   
    11     2     7 ar  
    12     5    11 1   
    13     5     6 ar  
    14    14    15 1   
    15     7     6 ar  
    16     6    12 1   
    17     3    17 1   
    18     7    18 1   
    19     8    19 1   
    20     8    20 1   
    21     9    21 1   
    22     9    22 1   
    23    10    23 1   
    24    11    24 1   
    25    12    25 1   
    26    13    26 1   
    27    13    27 1   
    28    14    28 1   
    29    14    29 1   
    30    15    30 1   
    31    15    31 1   
    32    15    32 1   
@<TRIPOS>SUBSTRUCTURE
     1 3N0         1 TEMP              0 ****  ****    0 ROOT
