@<TRIPOS>MOLECULE
molecule
   23    24     1     0     0
SMALL
bcc


@<TRIPOS>ATOM
      1 Cl1          0.0000     0.0000     0.0000 cl         1 3N1      -0.146400
      2 C2           1.7360     0.0000     0.0000 ca         1 3N1       0.017400
      3 C3           2.4190     0.0000     1.1900 ca         1 3N1      -0.095000
      4 C5           3.8300    -0.0010     1.2020 ca         1 3N1      -0.035800
      5 C6           4.5160    -0.0000    -0.0140 ca         1 3N1      -0.029100
      6 S7           6.2500    -0.0010     0.2830 ss         1 3N1      -0.108500
      7 C8           6.0200    -0.0030     2.0210 cc         1 3N1       0.078400
      8 C9           4.7400    -0.0020     2.3370 cd         1 3N1      -0.128400
      9 C10          4.2580    -0.0040     3.7650 c3         1 3N1      -0.021900
     10 C14          7.1430    -0.0040     3.0250 c3         1 3N1      -0.135200
     11 C17          7.5180    -1.4250     3.3590 c          1 3N1       0.890600
     12 O18          8.5010    -1.6710     4.2390 o          1 3N1      -0.835800
     13 O19          6.9330    -2.3430     2.8340 o          1 3N1      -0.835800
     14 C21          3.8010     0.0010    -1.2160 ca         1 3N1      -0.086000
     15 C23          2.4260    -0.0050    -1.2060 ca         1 3N1      -0.144000
     16 H3           1.8710     0.0020     2.1250 ha         1 3N1       0.139000
     17 H10          4.3930     0.9820     4.1930 hc         1 3N1       0.040033
     18 H10A         4.8270    -0.7270     4.3370 hc         1 3N1       0.040033
     19 H10B         3.2080    -0.2680     3.7910 hc         1 3N1       0.040033
     20 H14          6.8230     0.5060     3.9260 hc         1 3N1       0.049700
     21 H14A         8.0020     0.5070     2.6070 hc         1 3N1       0.049700
     22 H21          4.3340    -0.0030    -2.1600 ha         1 3N1       0.128000
     23 H23          1.8790    -0.0120    -2.1410 ha         1 3N1       0.129000
@<TRIPOS>BOND
     1     2     1 1
     2    15     2 ar
     3     2     3 ar
     4     4     3 ar
     5     3    16 1
     6     5     4 ar
     7     4     8 1
     8     6     5 1
     9    14     5 ar
    10     6     7 1
    11    10     7 1
    12     7     8 2
    13     8     9 1
    14     9    17 1
    15     9    18 1
    16     9    19 1
    17    11    10 1
    18    10    20 1
    19    10    21 1
    20    13    11 1
    21    12    11 1
    22    14    15 ar
    23    14    22 1
    24    15    23 1
@<TRIPOS>SUBSTRUCTURE
     1 3N1         1 TEMP              0 ****  ****    0 ROOT
