@<TRIPOS>MOLECULE
3N1
   23    24     1     0     0
SMALL
bcc


@<TRIPOS>ATOM
      1 CL1        -0.0370    0.2270    0.2080 cl        1 3N1     -0.140400
      2 C2          1.6680    0.1140    0.1530 ca        1 3N1      0.006400
      3 C3          2.3930    0.0960    1.3370 ca        1 3N1     -0.094000
      4 C5          3.7910    0.0080    1.2690 ca        1 3N1     -0.046800
      5 C6          4.4390   -0.0650    0.0010 ca        1 3N1     -0.099100
      6 S7          6.1070   -0.1660    0.1930 ss        1 3N1     -0.008500
      7 C8          6.0370   -0.1010    1.8970 cc        1 3N1      0.028400
      8 C9          4.7410   -0.0190    2.3550 cd        1 3N1     -0.116400
      9 C10         4.3550    0.0200    3.7730 c3        1 3N1     -0.049900
     10 C14         7.2680   -0.1150    2.6880 c3        1 3N1     -0.173200
     11 C17         7.5150   -1.4730    3.4130 c         1 3N1      0.927600
     12 O18         7.0390   -1.6030    4.5740 o         1 3N1     -0.825800
     13 O19         8.2120   -2.3310    2.8110 o         1 3N1     -0.825800
     14 C21         3.6810   -0.0520   -1.1740 ca        1 3N1     -0.086000
     15 C23         2.3010    0.0400   -1.1030 ca        1 3N1     -0.149000
     16 H3          1.8960    0.1470    2.3160 ha        1 3N1      0.145000
     17 H10         4.2520    1.0790    4.1200 hc        1 3N1      0.052700
     18 H10A        5.1430   -0.4900    4.3950 hc        1 3N1      0.052700
     19 H10B        3.3780   -0.4980    3.9330 hc        1 3N1      0.052700
     20 H14         7.2150    0.6810    3.4770 hc        1 3N1      0.047200
     21 H14A        8.1540    0.0860    2.0330 hc        1 3N1      0.047200
     22 H21         4.1810   -0.1160   -2.1520 ha        1 3N1      0.127000
     23 H23         1.6980    0.0520   -2.0210 ha        1 3N1      0.129000
@<TRIPOS>BOND
     1    1    2 1   
     2    2    3 ar  
     3    2   15 ar  
     4    3    4 ar  
     5    3   16 1   
     6    4    5 ar  
     7    4    8 1   
     8    5    6 1   
     9    5   14 ar  
    10    6    7 1   
    11    7    8 2   
    12    7   10 1   
    13    8    9 1   
    14    9   17 1   
    15    9   18 1   
    16    9   19 1   
    17   10   11 1   
    18   10   20 1   
    19   10   21 1   
    20   11   12 1   
    21   11   13 1   
    22   14   15 ar  
    23   14   22 1   
    24   15   23 1   
@<TRIPOS>SUBSTRUCTURE
     1 3N1         1 TEMP              0 ****  ****    0 ROOT
