@<TRIPOS>MOLECULE
molecule
   20    21     1     0     0
SMALL
bcc


@<TRIPOS>ATOM
      1 Cl1          0.0000     0.0000     0.0000 cl         1 3N2      -0.138400
      2 C2           1.7360     0.0000     0.0000 ca         1 3N2       0.008400
      3 C3           2.4180     0.0000     1.1910 ca         1 3N2      -0.055000
      4 C5           3.8290     0.0000     1.2050 ca         1 3N2      -0.034800
      5 C6           4.5160    -0.0010    -0.0130 ca         1 3N2       0.005900
      6 S7           6.2490    -0.0020     0.2850 ss         1 3N2      -0.283500
      7 C8           6.0190    -0.0010     2.0230 cc         1 3N2      -0.047400
      8 C10          4.7380     0.0000     2.3390 cd         1 3N2       0.029600
      9 C11          4.2560     0.0010     3.7660 c3         1 3N2      -0.142200
     10 C14          3.9770    -1.4140     4.2030 c          1 3N2       0.891600
     11 O15          4.1530    -2.3290     3.4340 o          1 3N2      -0.838300
     12 O16          3.5340    -1.6580     5.4460 o          1 3N2      -0.838300
     13 C18          3.8010    -0.0020    -1.2140 ca         1 3N2      -0.104000
     14 C20          2.4260    -0.0070    -1.2050 ca         1 3N2      -0.129000
     15 H3           1.8700     0.0140     2.1250 ha         1 3N2       0.162000
     16 H8           7.0850     0.1080     2.1790 h4         1 3N2       0.171000
     17 H11          5.0180     0.4320     4.4040 hc         1 3N2       0.044200
     18 H11A         3.3490     0.5870     3.8410 hc         1 3N2       0.044200
     19 H18          4.3330    -0.0070    -2.1580 ha         1 3N2       0.125000
     20 H20          1.8800    -0.0050    -2.1410 ha         1 3N2       0.128000
@<TRIPOS>BOND
     1     2     1 1
     2    14     2 ar
     3     2     3 ar
     4     4     3 ar
     5     3    15 1
     6     5     4 ar
     7     4     8 1
     8    13     5 ar
     9     6     5 1
    10     6     7 1
    11     7     8 2
    12     7    16 1
    13     8     9 1
    14    10     9 1
    15     9    17 1
    16     9    18 1
    17    11    10 1
    18    12    10 1
    19    13    14 ar
    20    13    19 1
    21    14    20 1
@<TRIPOS>SUBSTRUCTURE
     1 3N2         1 TEMP              0 ****  ****    0 ROOT
