@<TRIPOS>MOLECULE
3N2
   20    21     1     0     0
SMALL
bcc


@<TRIPOS>ATOM
      1 CL1        -0.0420    0.0400    0.4350 cl        1 3N2     -0.129400
      2 C2          1.6570    0.0330    0.2580 ca        1 3N2     -0.009600
      3 C3          2.4700   -0.0620    1.3820 ca        1 3N2     -0.051000
      4 C5          3.8590   -0.0460    1.1950 ca        1 3N2     -0.068800
      5 C6          4.4110    0.0160   -0.1140 ca        1 3N2     -0.060100
      6 S7          6.1010   -0.0450   -0.0550 ss        1 3N2     -0.082500
      7 C8          6.1380   -0.1190    1.6410 cc        1 3N2     -0.180400
      8 C10         4.8950   -0.1040    2.2130 cd        1 3N2      0.021600
      9 C11         4.6190   -0.0870    3.6570 c3        1 3N2     -0.172200
     10 C14         3.8790   -1.3510    4.1690 c         1 3N2      0.922600
     11 O15         4.5760   -2.2910    4.6340 o         1 3N2     -0.831800
     12 O16         2.6150   -1.3380    4.1340 o         1 3N2     -0.831800
     13 C18         3.5680    0.1020   -1.2270 ca        1 3N2     -0.118000
     14 C20         2.1950    0.1190   -1.0400 ca        1 3N2     -0.128000
     15 H3          2.0700   -0.1960    2.4120 ha        1 3N2      0.224000
     16 H8          7.0820   -0.1830    2.1780 h4        1 3N2      0.164000
     17 H11         3.9730    0.7990    3.8930 hc        1 3N2      0.042200
     18 H11A        5.5790    0.0060    4.2270 hc        1 3N2      0.042200
     19 H18         3.9920    0.1530   -2.2390 ha        1 3N2      0.122000
     20 H20         1.5230    0.1900   -1.9070 ha        1 3N2      0.126000
@<TRIPOS>BOND
     1    1    2 1   
     2    2    3 ar  
     3    2   14 ar  
     4    3    4 ar  
     5    3   15 1   
     6    4    5 ar  
     7    4    8 1   
     8    5    6 1   
     9    5   13 ar  
    10    6    7 1   
    11    7    8 2   
    12    7   16 1   
    13    8    9 1   
    14    9   10 1   
    15    9   17 1   
    16    9   18 1   
    17   10   11 1   
    18   10   12 1   
    19   13   14 ar  
    20   13   19 1   
    21   14   20 1   
@<TRIPOS>SUBSTRUCTURE
     1 3N2         1 TEMP              0 ****  ****    0 ROOT
