@<TRIPOS>MOLECULE
molecule
   36    38     1     0     0
SMALL
bcc


@<TRIPOS>ATOM
      1 N1           0.0000     0.0000     0.0000 n          1 3N3      -0.322000
      2 C2           1.4660     0.0000     0.0000 c3         1 3N3       0.021700
      3 C4           1.8680     0.0000     1.4830 c3         1 3N3      -0.023100
      4 C7           0.5560    -0.0000     2.2350 ca         1 3N3      -0.132300
      5 C8          -0.4800    -0.0010     1.3130 ca         1 3N3       0.084600
      6 C9          -1.7970    -0.0010     1.7750 ca         1 3N3      -0.165000
      7 C11         -2.0600    -0.0010     3.1280 ca         1 3N3      -0.116000
      8 C13         -1.0200    -0.0010     4.0390 ca         1 3N3      -0.181000
      9 C15          0.2870     0.0000     3.5900 ca         1 3N3      -0.097000
     10 C17          1.9890    -1.2370    -0.6840 c          1 3N3       0.890600
     11 O18          1.2680    -2.1960    -0.8330 o          1 3N3      -0.826800
     12 O19          3.2550    -1.2730    -1.1270 o          1 3N3      -0.826800
     13 C21         -0.7720     0.0050    -1.1050 c          1 3N3       0.767100
     14 O22         -0.2590     0.0050    -2.2060 o          1 3N3      -0.573000
     15 O23         -2.1140     0.0090    -0.9880 os         1 3N3      -0.444900
     16 C24         -2.8830     0.0150    -2.2200 c3         1 3N3       0.210700
     17 C27         -4.3540     0.0190    -1.8930 ca         1 3N3      -0.086300
     18 C28         -5.0320    -1.1760    -1.7400 ca         1 3N3      -0.103000
     19 C30         -6.3820    -1.1710    -1.4410 ca         1 3N3      -0.139000
     20 C32         -7.0530     0.0290    -1.2940 ca         1 3N3      -0.130000
     21 C34         -6.3750     1.2230    -1.4460 ca         1 3N3      -0.139000
     22 C36         -5.0240     1.2190    -1.7420 ca         1 3N3      -0.103000
     23 H2           1.8390     0.8920    -0.4880 h1         1 3N3       0.063700
     24 H4           2.4190     0.9040     1.7120 hc         1 3N3       0.062700
     25 H4A          2.4190    -0.9040     1.7120 hc         1 3N3       0.062700
     26 H9          -2.6170    -0.0010     1.0670 ha         1 3N3       0.148000
     27 H11         -3.0840    -0.0020     3.4790 ha         1 3N3       0.114000
     28 H13         -1.2290    -0.0010     5.1020 ha         1 3N3       0.111000
     29 H15          1.1040    -0.0000     4.3020 ha         1 3N3       0.118000
     30 H24         -2.6370     0.8990    -2.7950 h1         1 3N3       0.055700
     31 H24A        -2.6440    -0.8700    -2.7980 h1         1 3N3       0.055700
     32 H28         -4.5060    -2.1160    -1.8550 ha         1 3N3       0.138500
     33 H30         -6.9130    -2.1080    -1.3210 ha         1 3N3       0.123500
     34 H32         -8.1110     0.0320    -1.0610 ha         1 3N3       0.120000
     35 H34         -6.9010     2.1630    -1.3290 ha         1 3N3       0.123500
     36 H36         -4.4930     2.1550    -1.8610 ha         1 3N3       0.138500
@<TRIPOS>BOND
     1     2     1 1   
     2    13     1 1   
     3     1     5 1   
     4    10     2 1   
     5     2     3 1   
     6     2    23 1   
     7     3     4 1   
     8     3    24 1   
     9     3    25 1   
    10     5     4 ar  
    11     4     9 ar  
    12     5     6 ar  
    13     6     7 ar  
    14     6    26 1   
    15     7     8 ar  
    16     7    27 1   
    17     9     8 ar  
    18     8    28 1   
    19     9    29 1   
    20    11    10 1   
    21    10    12 1   
    22    14    13 2   
    23    13    15 1   
    24    16    15 1   
    25    16    17 1   
    26    16    30 1   
    27    16    31 1   
    28    18    17 ar  
    29    17    22 ar  
    30    18    19 ar  
    31    18    32 1   
    32    19    20 ar  
    33    19    33 1   
    34    20    21 ar  
    35    20    34 1   
    36    22    21 ar  
    37    21    35 1   
    38    22    36 1   
@<TRIPOS>SUBSTRUCTURE
     1 3N3         1 TEMP              0 ****  ****    0 ROOT
