@<TRIPOS>MOLECULE
molecule
   26    28     1     0     0
SMALL
bcc


@<TRIPOS>ATOM
      1 S1           0.0000     0.0000     0.0000 ss         1 3N4      -0.178500
      2 C2           1.7620     0.0000     0.0000 ca         1 3N4      -0.028100
      3 C3           2.2200     0.0000     1.3150 ca         1 3N4      -0.017800
      4 C4           3.6780    -0.0010     1.5360 ca         1 3N4       0.015000
      5 C5           4.5480    -0.0010     0.4250 ca         1 3N4      -0.040000
      6 C6           4.0110    -0.0020    -0.8790 ca         1 3N4      -0.131000
      7 C8           2.6730     0.0000    -1.0720 ca         1 3N4      -0.089000
      8 C10          5.9350    -0.0020     0.6390 ca         1 3N4      -0.140000
      9 C12          6.4190    -0.0020     1.9140 ca         1 3N4      -0.135000
     10 C14          5.5580    -0.0020     3.0070 ca         1 3N4      -0.139000
     11 C16          4.2050    -0.0020     2.8320 ca         1 3N4      -0.088000
     12 C18          1.1770    -0.0010     2.2530 cc         1 3N4      -0.010400
     13 C19         -0.0480    -0.0000     1.7540 cd         1 3N4      -0.096400
     14 C21          1.4350    -0.0010     3.7380 c3         1 3N4      -0.152200
     15 C24          1.8710    -1.3770     4.1720 c          1 3N4       0.883600
     16 O25          2.1570    -1.6150     5.4620 o          1 3N4      -0.836300
     17 O26          1.9620    -2.2650     3.3580 o          1 3N4      -0.836300
     18 H6           4.6760    -0.0040    -1.7330 ha         1 3N4       0.116000
     19 H8           2.2900     0.0020    -2.0860 ha         1 3N4       0.112000
     20 H10          6.6170    -0.0020    -0.2020 ha         1 3N4       0.113000
     21 H12          7.4900    -0.0030     2.0780 ha         1 3N4       0.109000
     22 H14          5.9670    -0.0020     4.0100 ha         1 3N4       0.127000
     23 H16          3.5430    -0.0020     3.6900 ha         1 3N4       0.190000
     24 H19         -0.9560     0.0000     2.3460 h4         1 3N4       0.165000
     25 H21          0.5270     0.2720     4.2630 hc         1 3N4       0.044200
     26 H21A         2.2150     0.7140     3.9700 hc         1 3N4       0.044200
@<TRIPOS>BOND
     1     1     2 1
     2     1    13 1
     3     7     2 ar
     4     2     3 ar
     5     3     4 ar
     6     3    12 1
     7     5     4 ar
     8     4    11 ar
     9     6     5 ar
    10     5     8 ar
    11     7     6 ar
    12     6    18 1
    13     7    19 1
    14     8     9 ar
    15     8    20 1
    16     9    10 ar
    17     9    21 1
    18    11    10 ar
    19    10    22 1
    20    11    23 1
    21    13    12 2
    22    12    14 1
    23    13    24 1
    24    15    14 1
    25    14    25 1
    26    14    26 1
    27    17    15 1
    28    16    15 1
@<TRIPOS>SUBSTRUCTURE
     1 3N4         1 TEMP              0 ****  ****    0 ROOT
