@<TRIPOS>MOLECULE
3N4
   26    28     1     0     0
SMALL
bcc


@<TRIPOS>ATOM
      1 S1          0.1870   -0.3130   -0.0680 ss        1 3N4     -0.032500
      2 C2          1.8590   -0.1240   -0.0160 ca        1 3N4     -0.102100
      3 C3          2.3460   -0.1100    1.3120 ca        1 3N4     -0.042800
      4 C4          3.7570   -0.0540    1.5330 ca        1 3N4      0.008000
      5 C5          4.6060    0.1630    0.4120 ca        1 3N4     -0.047000
      6 C6          4.0610    0.2100   -0.9080 ca        1 3N4     -0.135000
      7 C8          2.7230    0.0370   -1.1210 ca        1 3N4     -0.094000
      8 C10         6.0040    0.2930    0.6070 ca        1 3N4     -0.147000
      9 C12         6.5510    0.1630    1.8630 ca        1 3N4     -0.136000
     10 C14         5.7210   -0.1330    2.9630 ca        1 3N4     -0.149000
     11 C16         4.3570   -0.2510    2.8040 ca        1 3N4     -0.102000
     12 C18         1.2460   -0.1550    2.2600 cc        1 3N4      0.005600
     13 C19         0.0420   -0.2950    1.6060 cd        1 3N4     -0.179400
     14 C21         1.3200    0.0270    3.7180 c3        1 3N4     -0.171200
     15 C24         1.3990   -1.3040    4.5120 c         1 3N4      0.922600
     16 O25         2.5240   -1.6260    4.9910 o         1 3N4     -0.833300
     17 O26         0.3350   -1.9570    4.6770 o         1 3N4     -0.833300
     18 H6          4.7500    0.3690   -1.7500 ha        1 3N4      0.115000
     19 H8          2.3030    0.0330   -2.1370 ha        1 3N4      0.118000
     20 H10         6.6420    0.4900   -0.2660 ha        1 3N4      0.111000
     21 H12         7.6340    0.2680    2.0150 ha        1 3N4      0.111000
     22 H14         6.1710   -0.2880    3.9540 ha        1 3N4      0.129000
     23 H16         3.7270   -0.5620    3.6670 ha        1 3N4      0.222000
     24 H19        -0.9180   -0.4010    2.1090 h4        1 3N4      0.178000
     25 H21         0.3900    0.5530    4.0650 hc        1 3N4      0.040700
     26 H21A        2.1960    0.6700    3.9890 hc        1 3N4      0.040700
@<TRIPOS>BOND
     1    1    2 1   
     2    1   13 1   
     3    2    3 ar  
     4    2    7 ar  
     5    3    4 ar  
     6    3   12 1   
     7    4    5 ar  
     8    4   11 ar  
     9    5    6 ar  
    10    5    8 ar  
    11    6    7 ar  
    12    6   18 1   
    13    7   19 1   
    14    8    9 ar  
    15    8   20 1   
    16    9   10 ar  
    17    9   21 1   
    18   10   11 ar  
    19   10   22 1   
    20   11   23 1   
    21   12   13 2   
    22   12   14 1   
    23   13   24 1   
    24   14   15 1   
    25   14   25 1   
    26   14   26 1   
    27   15   16 1   
    28   15   17 1   
@<TRIPOS>SUBSTRUCTURE
     1 3N4         1 TEMP              0 ****  ****    0 ROOT
