@<TRIPOS>MOLECULE
3N5
   36    38     1     0     0
SMALL
bcc


@<TRIPOS>ATOM
      1 N1          0.0110   -0.8100    0.0240 n         1 3N5     -0.297000
      2 C2          1.2600   -0.0120   -0.1210 c3        1 3N5     -0.058300
      3 C4          1.7610    0.2950    1.3180 c3        1 3N5     -0.030100
      4 C7          0.6460   -0.1700    2.1950 ca        1 3N5     -0.112300
      5 C8         -0.3900   -0.7360    1.3830 ca        1 3N5      0.056600
      6 C9         -1.5590   -1.2170    1.9750 ca        1 3N5     -0.150000
      7 C11        -1.6730   -1.1600    3.3690 ca        1 3N5     -0.122000
      8 C13        -0.6580   -0.6280    4.1560 ca        1 3N5     -0.175000
      9 C15         0.5100   -0.1230    3.5670 ca        1 3N5     -0.109000
     10 C17         1.0870    1.3130   -0.9300 c         1 3N5      0.911600
     11 O18        -0.0160    1.4970   -1.5220 o         1 3N5     -0.815300
     12 O19         2.0630    2.1050   -0.9430 o         1 3N5     -0.815300
     13 C21        -0.9300   -0.6360   -1.0270 c         1 3N5      0.791100
     14 O22        -0.8290   -1.1050   -2.1660 o         1 3N5     -0.549000
     15 O23        -2.1580   -0.0820   -0.6670 os        1 3N5     -0.468900
     16 C24        -2.7270    0.7870   -1.6550 c3        1 3N5      0.192700
     17 C27        -4.2100    0.6110   -1.6830 ca        1 3N5     -0.069300
     18 C28        -4.9410    1.2770   -2.6760 ca        1 3N5     -0.123500
     19 C30        -6.3280    1.1560   -2.7280 ca        1 3N5     -0.138500
     20 C32        -6.9980    0.3680   -1.7910 ca        1 3N5     -0.151000
     21 C34        -6.2750   -0.2970   -0.8020 ca        1 3N5     -0.138500
     22 C36        -4.8870   -0.1760   -0.7460 ca        1 3N5     -0.123500
     23 H2          1.9920   -0.6620   -0.6700 h1        1 3N5      0.071700
     24 H4          1.9610    1.3910    1.4270 hc        1 3N5      0.064200
     25 H4A         2.7050   -0.2610    1.5330 hc        1 3N5      0.064200
     26 H9         -2.3790   -1.6080    1.3560 ha        1 3N5      0.140000
     27 H11        -2.5900   -1.5400    3.8430 ha        1 3N5      0.112000
     28 H13        -0.7720   -0.5920    5.2480 ha        1 3N5      0.111000
     29 H15         1.3020    0.3120    4.1930 ha        1 3N5      0.121000
     30 H24        -2.4530    1.8330   -1.3410 h1        1 3N5      0.087700
     31 H24A       -2.2800    0.5870   -2.6660 h1        1 3N5      0.087700
     32 H28        -4.4110    1.8950   -3.4160 ha        1 3N5      0.142500
     33 H30        -6.8940    1.6810   -3.5090 ha        1 3N5      0.117500
     34 H32        -8.0920    0.2730   -1.8330 ha        1 3N5      0.114000
     35 H34        -6.7990   -0.9180   -0.0620 ha        1 3N5      0.117500
     36 H36        -4.3100   -0.6980    0.0350 ha        1 3N5      0.142500
@<TRIPOS>BOND
     1    1    2 1
     2    1    5 1
     3    1   13 1
     4    2    3 1
     5    2   10 1
     6    2   23 1
     7    3    4 1
     8    3   24 1
     9    3   25 1
    10    4    5 ar
    11    4    9 ar
    12    5    6 ar
    13    6    7 ar
    14    6   26 1
    15    7    8 ar
    16    7   27 1
    17    8    9 ar
    18    8   28 1
    19    9   29 1
    20   10   11 1
    21   10   12 1
    22   13   14 2
    23   13   15 1
    24   15   16 1
    25   16   17 1
    26   16   30 1
    27   16   31 1
    28   17   18 ar
    29   17   22 ar
    30   18   19 ar
    31   18   32 1
    32   19   20 ar
    33   19   33 1
    34   20   21 ar
    35   20   34 1
    36   21   22 ar
    37   21   35 1
    38   22   36 1
@<TRIPOS>SUBSTRUCTURE
     1 3N5         1 TEMP              0 ****  ****    0 ROOT
