@<TRIPOS>MOLECULE
molecule
   44    48     1     0     0
SMALL
bcc


@<TRIPOS>ATOM
      1 C1           0.0000     0.0000     0.0000 c3         1 3N7      -0.141400
      2 C2           1.5070     0.0000     0.0000 ca         1 3N7       0.519600
      3 C3           2.2050     0.0000     1.1930 ca         1 3N7      -0.466600
      4 C4           3.6010    -0.0010     1.1470 ca         1 3N7       0.744200
      5 N5           4.3420    -0.0010     2.3180 nu         1 3N7      -0.844600
      6 C6           3.7020     0.1680     3.5530 cc         1 3N7       0.604200
      7 C7           4.3320     0.2480     4.8050 cc         1 3N7      -0.368300
      8 C8           3.3720     0.4090     5.7430 cd         1 3N7      -0.006600
      9 N9           2.1790     0.4320     5.1140 na         1 3N7      -0.044600
     10 N10          2.4090     0.2850     3.7400 nd         1 3N7      -0.555800
     11 C12          3.5960     0.5420     7.2280 cx         1 3N7      -0.076400
     12 C13          2.6590     1.4700     8.0040 cx         1 3N7      -0.131400
     13 C14          2.5330    -0.0470     8.1580 cx         1 3N7      -0.131400
     14 N15          4.2070    -0.0000    -0.0360 nb         1 3N7      -0.853000
     15 C16          3.5020    -0.0000    -1.1560 ca         1 3N7       0.967900
     16 N17          4.1650    -0.0010    -2.3720 nu         1 3N7      -0.758300
     17 C18          5.5590     0.1210    -2.4090 ca         1 3N7       0.118600
     18 C19          6.2930    -0.5820    -3.3660 ca         1 3N7      -0.109000
     19 C20          7.6530    -0.4760    -3.4190 ca         1 3N7      -0.146000
     20 C21          8.3260     0.3390    -2.5130 ca         1 3N7      -0.035200
     21 N22          9.6490     0.6460    -2.3150 na         1 3N7      -0.057100
     22 N24          9.7550     1.5360    -1.2410 nd         1 3N7      -0.502100
     23 C25          8.5740     1.8010    -0.7600 cc         1 3N7       0.376800
     24 C26          7.5950     1.0540    -1.5430 ca         1 3N7      -0.240900
     25 C27          6.2010     0.9410    -1.5030 ca         1 3N7      -0.049000
     26 N28          2.1760    -0.0070    -1.1430 nb         1 3N7      -0.827000
     27 H1          -0.3610     0.7750     0.6650 hc         1 3N7       0.055033
     28 H1A         -0.3610     0.1890    -1.0040 hc         1 3N7       0.055033
     29 H1B         -0.3610    -0.9640     0.3380 hc         1 3N7       0.055033
     30 H3           1.6930    -0.2300     2.1200 ha         1 3N7       0.191000
     31 HN5          5.3320    -0.1410     2.2840 hn         1 3N7       0.471800
     32 H7           5.3980     0.1900     4.9870 ha         1 3N7       0.159000
     33 H12          4.6080     0.4960     7.6100 hc         1 3N7       0.103700
     34 H13          1.8820     1.9470     7.4180 hc         1 3N7       0.078950
     35 H13A         3.1050     1.9890     8.8430 hc         1 3N7       0.078950
     36 H14          1.6790    -0.4970     7.6660 hc         1 3N7       0.078950
     37 H14A         2.9020    -0.4550     9.0910 hc         1 3N7       0.078950
     38 HN17         3.6450    -0.0530    -3.2260 hn         1 3N7       0.465800
     39 H19          5.7780    -1.2180    -4.0760 ha         1 3N7       0.135000
     40 H20          8.2100    -1.0260    -4.1680 ha         1 3N7       0.131000
     41 H25          8.3570     2.4580     0.0730 h4         1 3N7       0.061800
     42 H27          5.6230     1.5940    -0.8610 ha         1 3N7       0.153000
     43 HN9          1.2850     0.5400     5.5520 hn         1 3N7       0.329700
     44 HN22        10.4140     0.2900    -2.8520 hn         1 3N7       0.329700
@<TRIPOS>BOND
     1     1     2 1
     2     1    27 1
     3     1    28 1
     4     1    29 1
     5    26     2 ar
     6     2     3 ar
     7     3     4 ar
     8     3    30 1
     9    14     4 ar
    10     4     5 1
    11     5     6 1
    12     5    31 1
    13     7     6 1
    14     6    10 2
    15     7     8 2
    16     7    32 1
    17    11     8 1
    18     8     9 1
    19    10     9 1
    20    13    11 1
    21    11    12 1
    22    11    33 1
    23    13    12 1
    24    12    34 1
    25    12    35 1
    26    13    36 1
    27    13    37 1
    28    15    14 ar
    29    16    15 1
    30    26    15 ar
    31    16    17 1
    32    16    38 1
    33    25    17 ar
    34    17    18 ar
    35    18    19 ar
    36    18    39 1
    37    20    19 ar
    38    19    40 1
    39    24    20 ar
    40    21    20 1
    41    22    21 1
    42    23    22 2
    43    23    24 1
    44    23    41 1
    45    25    24 ar
    46    25    42 1
    47     9    43 1
    48    21    44 1
@<TRIPOS>SUBSTRUCTURE
     1 3N7         1 TEMP              0 ****  ****    0 ROOT
