@<TRIPOS>MOLECULE
molecule
   14    14     1     0     0
SMALL
bcc


@<TRIPOS>ATOM
      1 C1           0.0000     0.0000     0.0000 ca         1 3N8       0.076100
      2 C2           1.3910     0.0000     0.0000 ca         1 3N8       0.117100
      3 C3           2.0830     0.0000     1.2000 ca         1 3N8      -0.194000
      4 C4           1.3880     0.0010     2.3980 ca         1 3N8       0.138900
      5 C5           0.0040     0.0010     2.3980 ca         1 3N8      -0.164000
      6 C6          -0.6900     0.0010     1.2020 ca         1 3N8      -0.128000
      7 O7          -0.6820     0.0060    -1.1760 oh         1 3N8      -0.508100
      8 O8           2.0720    -0.0010    -1.1780 oh         1 3N8      -0.507100
      9 F9           2.0620     0.0000     3.5690 f          1 3N8      -0.136900
     10 H1           3.1660    -0.0000     1.2010 ha         1 3N8       0.157000
     11 H2          -0.5370     0.0020     3.3370 ha         1 3N8       0.150000
     12 H3          -1.7730     0.0010     1.2040 ha         1 3N8       0.149000
     13 H4          -1.0460    -0.8500    -1.3330 ho         1 3N8       0.423000
     14 H5           2.4250     0.8580    -1.3380 ho         1 3N8       0.427000
@<TRIPOS>BOND
     1     7     1 1   
     2     1     6 ar  
     3     1     2 ar  
     4     8     2 1   
     5     6     5 ar  
     6     2     3 ar  
     7     5     4 ar  
     8     3     4 ar  
     9     4     9 1   
    10     3    10 1   
    11     5    11 1   
    12     6    12 1   
    13     7    13 1   
    14     8    14 1   
@<TRIPOS>SUBSTRUCTURE
     1 3N8         1 TEMP              0 ****  ****    0 ROOT
