@<TRIPOS>MOLECULE
3N8
   14    14     1     0     0
SMALL
bcc


@<TRIPOS>ATOM
      1 C1         -0.1360   -0.1060    0.0510 ca        1 3N8      0.098100
      2 C2          1.2690   -0.2480    0.0060 ca        1 3N8      0.065100
      3 C3          2.0270   -0.2180    1.1760 ca        1 3N8     -0.210000
      4 C4          1.3670   -0.0450    2.4070 ca        1 3N8      0.124900
      5 C5         -0.0310    0.0970    2.4580 ca        1 3N8     -0.161000
      6 C6         -0.7770    0.0660    1.2850 ca        1 3N8     -0.110000
      7 O7         -0.9250   -0.1290   -1.0740 oh        1 3N8     -0.491100
      8 O8          1.8220   -0.4130   -1.2470 oh        1 3N8     -0.513100
      9 F9          2.0920   -0.0140    3.5510 f         1 3N8     -0.138900
     10 H1          3.1190   -0.3280    1.1470 ha        1 3N8      0.152000
     11 H2         -0.5280    0.2310    3.4290 ha        1 3N8      0.154000
     12 H3         -1.8710    0.1750    1.3090 ha        1 3N8      0.160000
     13 H4         -0.3470   -0.2540   -1.8430 ho        1 3N8      0.438000
     14 H5          2.7800   -0.4970   -1.1410 ho        1 3N8      0.433000
@<TRIPOS>BOND
     1    1    2 ar  
     2    1    6 ar  
     3    1    7 1   
     4    2    3 ar  
     5    2    8 1   
     6    3    4 ar  
     7    3   10 1   
     8    4    5 ar  
     9    4    9 1   
    10    5    6 ar  
    11    5   11 1   
    12    6   12 1   
    13    7   13 1   
    14    8   14 1   
@<TRIPOS>SUBSTRUCTURE
     1 3N8         1 TEMP              0 ****  ****    0 ROOT
