@<TRIPOS>MOLECULE
molecule
   16    16     1     0     0
SMALL
bcc


@<TRIPOS>ATOM
      1 C1           0.0000     0.0000     0.0000 c          1 3N9       0.571300
      2 C2           1.5140     0.0000     0.0000 c3         1 3N9       0.290800
      3 C3           2.2160     0.0000     1.3400 c2         1 3N9      -0.162200
      4 C4           1.4760    -0.0010     2.4550 ce         1 3N9       0.136500
      5 C5           0.0210    -0.0000     2.4020 ce         1 3N9      -0.068000
      6 C6          -0.6690     0.0060     1.2410 cf         1 3N9      -0.233200
      7 O2           1.9510    -1.1530    -0.7220 oh         1 3N9      -0.598800
      8 O3           1.9510     1.1540    -0.7220 os         1 3N9      -0.244800
      9 O4           3.4110     1.3010    -0.7840 oh         1 3N9      -0.403000
     10 O1          -0.6220    -0.0000    -1.0440 o          1 3N9      -0.482100
     11 F4           2.0940    -0.0000     3.6560 f          1 3N9      -0.157500
     12 H1           3.2790    -0.2020     1.3950 ha         1 3N9       0.182000
     13 H2          -0.5320    -0.0050     3.3340 ha         1 3N9       0.151000
     14 H3          -1.7520     0.0150     1.2630 ha         1 3N9       0.167000
     15 H4           1.7650    -1.0390    -1.6390 ho         1 3N9       0.432000
     16 H5           3.6280     2.0800    -1.2690 ho         1 3N9       0.420000
@<TRIPOS>BOND
     1     9     8 1
     2     8     2 1
     3    11     4 1
     4     3     2 1
     5     3     4 2
     6     2     7 1
     7     2     1 1
     8     4     5 1
     9     1    10 2
    10     1     6 1
    11     5     6 2
    12     3    12 1
    13     5    13 1
    14     6    14 1
    15     7    15 1
    16     9    16 1
@<TRIPOS>SUBSTRUCTURE
     1 3N9         1 TEMP              0 ****  ****    0 ROOT
