@<TRIPOS>MOLECULE
3N9
   16    16     1     0     0
SMALL
bcc


@<TRIPOS>ATOM
      1 C1          0.2290   -0.1610   -0.0180 c         1 3N9      0.539300
      2 C2          1.7390    0.0660    0.1470 c3        1 3N9      0.256800
      3 C3          2.2340   -0.0520    1.5530 c2        1 3N9     -0.182200
      4 C4          1.3740   -0.0050    2.5970 ce        1 3N9      0.157500
      5 C5         -0.0740    0.1160    2.4010 ce        1 3N9     -0.086000
      6 C6         -0.6070    0.0520    1.1710 cf        1 3N9     -0.208200
      7 O2          2.5040   -0.7580   -0.6920 oh        1 3N9     -0.589800
      8 O3          2.0610    1.4240   -0.3060 os        1 3N9     -0.216800
      9 O4          2.3880    1.4550   -1.5450 oh        1 3N9     -0.378000
     10 O1         -0.2150   -0.5160   -1.1120 o         1 3N9     -0.493100
     11 F4          1.8080   -0.0750    3.8780 f         1 3N9     -0.155500
     12 H1          3.3220   -0.1500    1.6740 ha        1 3N9      0.174000
     13 H2         -0.6880    0.2530    3.3050 ha        1 3N9      0.161000
     14 H3         -1.6920    0.1300    0.9940 ha        1 3N9      0.167000
     15 H4          2.0070   -0.8760   -1.5200 ho        1 3N9      0.446000
     16 H5          3.3530    1.2620   -1.6150 ho        1 3N9      0.409000
@<TRIPOS>BOND
     1    1    2 1   
     2    1    6 1   
     3    1   10 2   
     4    2    3 1   
     5    2    7 1   
     6    2    8 1   
     7    3    4 2   
     8    3   12 1   
     9    4    5 1   
    10    4   11 1   
    11    5    6 2   
    12    5   13 1   
    13    6   14 1   
    14    7   15 1   
    15    8    9 1   
    16    9   16 1   
@<TRIPOS>SUBSTRUCTURE
     1 3N9         1 TEMP              0 ****  ****    0 ROOT
