@<TRIPOS>MOLECULE
3NA
   36    36     1     0     0
SMALL
bcc


@<TRIPOS>ATOM
      1 C2         -1.5480   -0.6150   -0.5600 c1        1 3NA     -0.140000
      2 C3         -0.7310    0.7510    1.5950 c2        1 3NA     -0.160000
      3 C4         -0.2850   -1.0940   -0.0160 c3        1 3NA      0.113000
      4 C5         -2.6000   -0.1520   -0.9120 c1        1 3NA     -0.182000
      5 C6         -1.7920    1.3260    0.8560 c1        1 3NA     -0.084000
      6 C7         -0.0520   -0.3670    1.2890 c2        1 3NA     -0.256000
      7 C11         5.7900    0.2870    0.7940 c1        1 3NA     -0.331000
      8 C13         6.8990   -1.6490    1.7330 c2        1 3NA     -0.231000
      9 S14         5.3680   -2.4360    1.6490 ss        1 3NA      0.600000
     10 N15         0.8280   -1.0810   -0.9510 n2        1 3NA     -0.234000
     11 C16         4.7700    0.7730    0.3910 c1        1 3NA     -0.088000
     12 C17         7.0370   -0.2380    1.2630 c3        1 3NA      0.024000
     13 C20         1.4050   -0.0250   -1.3850 c2        1 3NA     -0.076000
     14 C24         7.4200   -3.6420    2.5670 ca        1 3NA     -0.046000
     15 C25         6.1970   -6.1120    3.1580 ca        1 3NA     -0.193000
     16 C26         8.2010   -4.6900    3.1260 ca        1 3NA      0.090000
     17 C27         6.0220   -3.8400    2.3060 ca        1 3NA     -0.399000
     18 C28         5.4300   -5.0860    2.6100 ca        1 3NA      0.153000
     19 C29         7.5720   -5.9180    3.4140 ca        1 3NA      0.065000
     20 C32         1.2090    1.4640   -1.1310 c2        1 3NA      0.332000
     21 O33         2.1880    2.0860   -0.6200 o         1 3NA     -0.564000
     22 O34         0.1270    2.0110   -1.4740 o         1 3NA     -0.564000
     23 N36         7.9000   -2.3740    2.2290 n2        1 3NA     -0.110000
     24 H2         -0.4180   -2.1990    0.2260 h1        1 3NA      0.098000
     25 H3         -0.5390    1.2830    2.5490 ha        1 3NA      0.146000
     26 H5         -3.5200    0.2520   -1.2430 ha        1 3NA      0.217000
     27 H6         -1.5730    2.0800    0.0850 ha        1 3NA      0.137000
     28 H16         0.7020   -0.8050    1.9520 ha        1 3NA      0.120000
     29 H171        7.4280    0.3960    2.1120 hc        1 3NA      0.120000
     30 H172        7.8070   -0.2000    0.4390 hc        1 3NA      0.120000
     31 H201        2.2440   -0.2230   -2.0900 h4        1 3NA      0.114000
     32 H202        3.8440    1.2030    0.0310 ha        1 3NA      0.303000
     33 H25         5.7370   -7.0830    3.3950 ha        1 3NA      0.165000
     34 F19         4.1140   -5.2940    2.3730 f         1 3NA     -0.088000
     35 F22         9.5150   -4.5230    3.3780 f         1 3NA     -0.077000
     36 F23         8.2910   -6.9340    3.9470 f         1 3NA     -0.096000
@<TRIPOS>BOND
     1    1    3 1   
     2    1    4 1   
     3    2    5 1   
     4    2    6 1   
     5    2   25 1   
     6    3    6 1   
     7    3   10 1   
     8    3   24 1   
     9    4   26 1   
    10    5   27 1   
    11    6   28 1   
    12    7   11 1   
    13    7   12 1   
    14    8    9 1   
    15    8   12 1   
    16    8   23 1   
    17    9   17 1   
    18   10   13 1   
    19   11   32 1   
    20   12   29 1   
    21   12   30 1   
    22   13   20 1   
    23   13   31 1   
    24   14   16 1   
    25   14   17 1   
    26   14   23 1   
    27   15   18 1   
    28   15   19 1   
    29   15   33 1   
    30   16   19 1   
    31   16   35 1   
    32   17   18 1   
    33   18   34 1   
    34   19   36 1   
    35   20   21 1   
    36   20   22 1   
@<TRIPOS>SUBSTRUCTURE
     1 3NA         1 TEMP              0 ****  ****    0 ROOT
