@<TRIPOS>MOLECULE
molecule
   36    39     1     0     0
SMALL
bcc


@<TRIPOS>ATOM
      1 C2           0.0000     0.0000     0.0000 ca         1 3NA      -0.108000
      2 C3           1.3650     0.0110     2.4270 ca         1 3NA      -0.101000
      3 C4           1.3910     0.0000     0.0000 ca         1 3NA      -0.009200
      4 C5          -0.6850     0.0100     1.1950 ca         1 3NA      -0.136000
      5 C6          -0.0010     0.0150     2.4020 ca         1 3NA      -0.165000
      6 C7           2.0790     0.0000     1.2270 ca         1 3NA      -0.098800
      7 C11          3.5060    -0.0060     0.8910 cc         1 3NA      -0.235400
      8 C13          4.9550    -1.4170     2.2920 cc         1 3NA       0.504200
      9 S14          4.2930    -2.2990     3.6330 ss         1 3NA      -0.113100
     10 N15          2.3400    -0.0130    -0.9980 na         1 3NA      -0.007400
     11 C16          3.5930    -0.0140    -0.4480 cd         1 3NA      -0.027100
     12 C17          4.6550    -0.0040     1.8640 c3         1 3NA       0.012500
     13 C20          2.0500    -0.0210    -2.4340 c3         1 3NA      -0.079700
     14 C24          5.9500    -3.5180     2.2300 ca         1 3NA       0.149400
     15 C25          6.0650    -6.0260     3.5110 ca         1 3NA      -0.197000
     16 C26          6.7910    -4.5490     1.7510 ca         1 3NA       0.127900
     17 C27          5.1790    -3.8170     3.3760 ca         1 3NA      -0.097100
     18 C28          5.2300    -5.0380     4.0060 ca         1 3NA       0.197900
     19 C29          6.8370    -5.7670     2.3860 ca         1 3NA       0.110900
     20 C32          1.8340     1.3930    -2.9090 c          1 3NA       0.870600
     21 O33          1.9140     2.3120    -2.1290 o          1 3NA      -0.824800
     22 O34          1.5530     1.6310    -4.2000 o          1 3NA      -0.824800
     23 N36          5.7680    -2.2730     1.7420 nd         1 3NA      -0.630100
     24 H2          -0.5430    -0.0040    -0.9370 ha         1 3NA       0.137000
     25 H3           1.8920     0.0140     3.3740 ha         1 3NA       0.108000
     26 H5          -1.7690     0.0140     1.1920 ha         1 3NA       0.116000
     27 H6          -0.5540     0.0230     3.3330 ha         1 3NA       0.109000
     28 H16          4.5190    -0.0210    -1.0110 h4         1 3NA       0.167000
     29 H171         4.3920     0.5890     2.7320 hc         1 3NA       0.071200
     30 H172         5.5300     0.4220     1.3880 hc         1 3NA       0.071200
     31 H201         2.8850    -0.4580    -2.9690 h1         1 3NA       0.054700
     32 H202         1.1560    -0.6050    -2.6190 h1         1 3NA       0.054700
     33 H25          6.2200    -6.9370     4.0770 ha         1 3NA       0.163000
     34 F19          4.4720    -5.2720     5.0990 f          1 3NA      -0.129900
     35 F22          7.5570    -4.3350     0.6590 f          1 3NA      -0.111900
     36 F23          7.6510    -6.7320     1.9060 f          1 3NA      -0.128900
@<TRIPOS>BOND
     1     1     3 ar
     2     1     4 ar
     3     1    24 1
     4     2     5 ar
     5     2     6 ar
     6     2    25 1
     7     3     6 ar
     8     3    10 1
     9     4     5 ar
    10     4    26 1
    11     5    27 1
    12     6     7 1
    13     7    11 2
    14     7    12 1
    15     8     9 1
    16     8    12 1
    17     8    23 2
    18     9    17 1
    19    10    11 1
    20    10    13 1
    21    11    28 1
    22    12    29 1
    23    12    30 1
    24    34    18 1
    25    13    20 1
    26    13    31 1
    27    13    32 1
    28    35    16 1
    29    36    19 1
    30    14    16 ar
    31    14    17 ar
    32    14    23 1
    33    15    18 ar
    34    15    19 ar
    35    15    33 1
    36    16    19 ar
    37    17    18 ar
    38    20    21 1
    39    20    22 1
@<TRIPOS>SUBSTRUCTURE
     1 3NA         1 TEMP              0 ****  ****    0 ROOT
