@<TRIPOS>MOLECULE
3NB
   38    38     1     0     0
SMALL
bcc


@<TRIPOS>ATOM
      1 C16        -0.0310   -0.0220    0.0120 c3        1 3NB     -0.079400
      2 C18         1.9820   -0.0160   -1.4660 c3        1 3NB     -0.093100
      3 C17         1.4810    0.0320   -0.0460 c3        1 3NB     -0.080400
      4 C14        -2.0410   -0.0280    1.4960 c3        1 3NB     -0.078400
      5 C13        -2.5350    0.0220    2.9260 c3        1 3NB     -0.075400
      6 C15        -0.5290    0.0270    1.4400 c3        1 3NB     -0.078400
      7 C12        -4.0460   -0.0330    2.9810 c3        1 3NB     -0.174400
      8 C1         -4.5690    0.0150    4.3890 c         1 3NB      0.579700
      9 C2         -6.0410   -0.0210    4.5610 ca        1 3NB     -0.140600
     10 C3         -6.9110   -0.1130    3.4700 ca        1 3NB     -0.161000
     11 C4         -8.2950   -0.1450    3.6710 ca        1 3NB      0.080100
     12 C5         -8.8310   -0.0860    4.9780 ca        1 3NB      0.114100
     13 C6         -7.9380    0.0060    6.0640 ca        1 3NB      0.080100
     14 C7         -6.5560    0.0380    5.8610 ca        1 3NB     -0.161000
     15 O8         -8.5200    0.0600    7.3140 oh        1 3NB     -0.492100
     16 O9        -10.1930   -0.1210    5.1190 oh        1 3NB     -0.466100
     17 O10        -9.1990   -0.2340    2.6390 oh        1 3NB     -0.492100
     18 O11        -3.8140    0.0830    5.3680 o         1 3NB     -0.534100
     19 H1         -0.4590    0.8390   -0.5660 hc        1 3NB      0.038700
     20 H2         -0.3920   -0.9630   -0.4810 hc        1 3NB      0.038700
     21 H3          3.0980    0.0250   -1.4860 hc        1 3NB      0.033033
     22 H4          1.6550   -0.9580   -1.9690 hc        1 3NB      0.033033
     23 H5          1.5880    0.8490   -2.0530 hc        1 3NB      0.033033
     24 H6          1.9080   -0.8300    0.5330 hc        1 3NB      0.039700
     25 H7          1.8410    0.9720    0.4500 hc        1 3NB      0.039700
     26 H8         -2.4010   -0.9700    1.0040 hc        1 3NB      0.037700
     27 H9         -2.4690    0.8330    0.9180 hc        1 3NB      0.037700
     28 H10        -2.1780    0.9620    3.4240 hc        1 3NB      0.056700
     29 H11        -2.1090   -0.8360    3.5100 hc        1 3NB      0.056700
     30 H12        -0.1000   -0.8340    2.0180 hc        1 3NB      0.042700
     31 H13        -0.1680    0.9680    1.9330 hc        1 3NB      0.042700
     32 H14        -4.4790    0.8320    2.4100 hc        1 3NB      0.065700
     33 H15        -4.4090   -0.9790    2.4980 hc        1 3NB      0.065700
     34 H16        -6.5220   -0.1600    2.4420 ha        1 3NB      0.151500
     35 H17        -5.8650    0.1090    6.7160 ha        1 3NB      0.151500
     36 H18        -7.8090    0.1190    7.9690 ho        1 3NB      0.426500
     37 H19       -10.3930   -0.0720    6.0690 ho        1 3NB      0.438000
     38 H20        -8.6960   -0.2670    1.8110 ho        1 3NB      0.426500
@<TRIPOS>BOND
     1    1    3 1   
     2    1    6 1   
     3    1   19 1   
     4    1   20 1   
     5    2    3 1   
     6    2   21 1   
     7    2   22 1   
     8    2   23 1   
     9    3   24 1   
    10    3   25 1   
    11    4    5 1   
    12    4    6 1   
    13    4   26 1   
    14    4   27 1   
    15    5    7 1   
    16    5   28 1   
    17    5   29 1   
    18    6   30 1   
    19    6   31 1   
    20    7    8 1   
    21    7   32 1   
    22    7   33 1   
    23    8    9 1   
    24    8   18 2   
    25    9   10 ar  
    26    9   14 ar  
    27   10   11 ar  
    28   10   34 1   
    29   11   12 ar  
    30   11   17 1   
    31   12   13 ar  
    32   12   16 1   
    33   13   14 ar  
    34   13   15 1   
    35   14   35 1   
    36   15   36 1   
    37   16   37 1   
    38   17   38 1   
@<TRIPOS>SUBSTRUCTURE
     1 3NB         1 TEMP              0 ****  ****    0 ROOT
