@<TRIPOS>MOLECULE
molecule
   38    38     1     0     0
SMALL
bcc


@<TRIPOS>ATOM
      1 C16          0.0000     0.0000     0.0000 c3         1 3NB      -0.082400
      2 C18          2.0410     0.0010    -1.4420 c3         1 3NB      -0.092100
      3 C17          1.5300     0.0000     0.0000 c3         1 3NB      -0.084400
      4 C14         -2.0400    -0.0000     1.4420 c3         1 3NB      -0.084400
      5 C13         -2.5500    -0.0010     2.8850 c3         1 3NB      -0.072400
      6 C15         -0.5090     0.0000     1.4420 c3         1 3NB      -0.080400
      7 C12         -4.0800    -0.0000     2.8840 c3         1 3NB      -0.178400
      8 C1          -4.5820    -0.0010     4.3050 c          1 3NB       0.576700
      9 C2          -6.0260    -0.0000     4.5740 ca         1 3NB      -0.158600
     10 C3          -6.9380    -0.0050     3.5100 ca         1 3NB      -0.118500
     11 C4          -8.2950    -0.0050     3.7660 ca         1 3NB       0.082100
     12 C5          -8.7570     0.0010     5.0810 ca         1 3NB       0.100100
     13 C6          -7.8540     0.0060     6.1410 ca         1 3NB       0.082100
     14 C7          -6.4950    -0.0020     5.8930 ca         1 3NB      -0.118500
     15 O8          -8.3100     0.0110     7.4230 oh         1 3NB      -0.508100
     16 O9         -10.0940     0.0030     5.3290 oh         1 3NB      -0.506100
     17 O10         -9.1800    -0.0090     2.7340 oh         1 3NB      -0.508100
     18 O11         -3.7940    -0.0020     5.2270 o          1 3NB      -0.522100
     19 H1          -0.3610    -0.8850    -0.5110 hc         1 3NB       0.040700
     20 H2          -0.3610     0.8850    -0.5110 hc         1 3NB       0.040700
     21 H3           1.6750     0.8830    -1.9540 hc         1 3NB       0.032700
     22 H4           3.1240     0.0070    -1.4420 hc         1 3NB       0.032700
     23 H5           1.6850    -0.8860    -1.9520 hc         1 3NB       0.032700
     24 H6           1.8910    -0.8850     0.5100 hc         1 3NB       0.040700
     25 H7           1.8910     0.8840     0.5110 hc         1 3NB       0.040700
     26 H8          -2.4010     0.8850     0.9320 hc         1 3NB       0.039200
     27 H9          -2.4010    -0.8840     0.9310 hc         1 3NB       0.039200
     28 H10         -2.1880     0.8830     3.3970 hc         1 3NB       0.056200
     29 H11         -2.1890    -0.8860     3.3950 hc         1 3NB       0.056200
     30 H12         -0.1480    -0.8850     1.9520 hc         1 3NB       0.043700
     31 H13         -0.1480     0.8850     1.9520 hc         1 3NB       0.043700
     32 H14         -4.4400     0.8850     2.3740 hc         1 3NB       0.066200
     33 H15         -4.4410    -0.8840     2.3720 hc         1 3NB       0.066200
     34 H16         -6.5790    -0.0090     2.4880 ha         1 3NB       0.156500
     35 H17         -5.7940     0.0020     6.7180 ha         1 3NB       0.156500
     36 H18         -8.1620     0.8600     7.8050 ho         1 3NB       0.426500
     37 H19        -10.4030    -0.8860     5.3910 ho         1 3NB       0.435000
     38 H20         -9.2150     0.8500     2.3460 ho         1 3NB       0.426500
@<TRIPOS>BOND
     1     2     3 1
     2    17    11 1
     3    18     8 2
     4     1     3 1
     5     1     6 1
     6    11    10 ar
     7    11    12 ar
     8    10     9 ar
     9    16    12 1
    10    12    13 ar
    11     8     9 1
    12     8     7 1
    13     9    14 ar
    14     6     4 1
    15     4     5 1
    16    13    14 ar
    17    13    15 1
    18     5     7 1
    19     1    19 1
    20     1    20 1
    21     2    21 1
    22     2    22 1
    23     2    23 1
    24     3    24 1
    25     3    25 1
    26     4    26 1
    27     4    27 1
    28     5    28 1
    29     5    29 1
    30     6    30 1
    31     6    31 1
    32     7    32 1
    33     7    33 1
    34    10    34 1
    35    14    35 1
    36    15    36 1
    37    16    37 1
    38    17    38 1
@<TRIPOS>SUBSTRUCTURE
     1 3NB         1 TEMP              0 ****  ****    0 ROOT
