@<TRIPOS>MOLECULE
molecule
   41    43     1     0     0
SMALL
bcc


@<TRIPOS>ATOM
      1 C1           0.0000     0.0000     0.0000 c3         1 3NC      -0.169700
      2 C2           1.5300     0.0000     0.0000 c3         1 3NC      -0.068400
      3 C3           2.0400     0.0000     1.4420 c3         1 3NC      -0.112400
      4 C4           1.5300     1.2480     2.1640 c3         1 3NC       0.153500
      5 C5          -0.0010     1.2480     2.1640 c3         1 3NC      -0.112400
      6 C6          -0.5100     1.2480     0.7220 c3         1 3NC      -0.068400
      7 C7          -1.8070    -5.8760     1.9870 ca         1 3NC      -0.168600
      8 C8          -2.4970    -4.6430     2.0740 ca         1 3NC       0.029200
      9 C9          -3.7790    -4.6110     2.7820 cc         1 3NC      -0.223200
     10 C10         -4.2600    -5.7400     3.3260 cd         1 3NC       0.017600
     11 N11         -3.5970    -6.9320     3.2440 ns         1 3NC      -0.434100
     12 C12         -2.4090    -7.0540     2.6170 c          1 3NC       0.708100
     13 C13         -0.5830    -5.9410     1.3200 ca         1 3NC      -0.022000
     14 C14         -0.0590    -4.8140     0.7540 ca         1 3NC      -0.038600
     15 C15         -0.7330    -3.5930     0.8350 ca         1 3NC       0.076600
     16 C16         -1.9480    -3.5030     1.4910 ca         1 3NC      -0.147000
     17 N19         -0.1760    -2.4550     0.2480 ns         1 3NC      -0.466100
     18 C20         -0.5020    -1.2310     0.7090 c          1 3NC       0.653100
     19 O21         -1.1990    -1.1210     1.6960 o          1 3NC      -0.588100
     20 N22          2.0190     1.2480     3.5490 nz         1 3NC      -0.814600
     21 H1          -0.3580     0.0050    -1.0220 hc         1 3NC       0.095700
     22 H2           1.7840    -1.0190    -0.2640 hc         1 3NC       0.078450
     23 H2A          1.6520     0.4760    -0.9650 hc         1 3NC       0.078450
     24 H3           3.1230     0.0030     1.4400 hc         1 3NC       0.076200
     25 H3A          1.6770    -0.8840     1.9520 hc         1 3NC       0.076200
     26 H4           1.8880     2.1320     1.6500 hx         1 3NC       0.091700
     27 H5          -0.6000     1.6190     2.9860 hc         1 3NC       0.076200
     28 H5A          0.5220     2.1350     1.8280 hc         1 3NC       0.076200
     29 H6          -1.5940     1.2460     0.7230 hc         1 3NC       0.078450
     30 H6A         -0.1470     2.1330     0.2120 hc         1 3NC       0.078450
     31 H9          -4.3960    -3.7220     2.7460 ha         1 3NC       0.155000
     32 H10         -5.2080    -5.7050     3.8480 h4         1 3NC       0.158000
     33 HN11        -4.0070    -7.7420     3.6640 hn         1 3NC       0.344500
     34 H13         -0.0510    -6.8820     1.2510 ha         1 3NC       0.179000
     35 H16         -2.4680    -2.5540     1.5510 ha         1 3NC       0.179000
     36 HN19         0.4800    -2.5500    -0.5020 hn         1 3NC       0.338500
     37 HN22         3.0190     1.2210     3.5500 hn         1 3NC       0.456800
     38 HN2A         1.7070     2.0780     4.0140 hn         1 3NC       0.456800
     39 O17         -1.8500    -8.1350     2.5650 o          1 3NC      -0.620500
     40 H223         1.6630     0.4440     4.0280 hn         1 3NC       0.456800
     41 Cl18         1.4650    -4.9000    -0.0750 cl         1 3NC      -0.110400
@<TRIPOS>BOND
     1    18     1 1
     2     2     1 1
     3     1     6 1
     4     1    21 1
     5     2     3 1
     6     2    22 1
     7     2    23 1
     8     3     4 1
     9     3    24 1
    10     3    25 1
    11    20     4 1
    12     4     5 1
    13     4    26 1
    14     6     5 1
    15     5    27 1
    16     5    28 1
    17     6    29 1
    18     6    30 1
    19    12     7 1
    20     8     7 ar
    21     7    13 ar
    22     9     8 1
    23     8    16 ar
    24    10     9 2
    25     9    31 1
    26    10    11 1
    27    10    32 1
    28    11    12 1
    29    11    33 1
    30    39    12 2
    31    13    14 ar
    32    13    34 1
    33    15    14 ar
    34    14    41 1
    35    16    15 ar
    36    15    17 1
    37    16    35 1
    38    18    17 1
    39    17    36 1
    40    19    18 2
    41    20    37 1
    42    20    38 1
    43    40    20 1
@<TRIPOS>SUBSTRUCTURE
     1 3NC         1 TEMP              0 ****  ****    0 ROOT
