@<TRIPOS>MOLECULE
molecule
   44    47     1     0     0
SMALL
bcc


@<TRIPOS>ATOM
      1 C1           0.0000     0.0000     0.0000 c2         1 3ND       0.535200
      2 N2           1.2900     0.0000     0.0000 ne         1 3ND      -0.671100
      3 C3           2.0410     0.0000     1.1100 c          1 3ND       0.722100
      4 C4          -0.7650     0.0060     1.3060 c3         1 3ND      -0.165400
      5 C5           0.0480     0.0050     2.5800 ca         1 3ND      -0.033300
      6 C6           1.4440    -0.0010     2.4560 ca         1 3ND      -0.207600
      7 C7           2.2380    -0.0020     3.6040 ca         1 3ND      -0.033000
      8 C8           1.6410    -0.0030     4.8470 ca         1 3ND      -0.029600
      9 C9           0.2530    -0.0020     4.9600 ca         1 3ND       0.097600
     10 C10         -0.5430     0.0100     3.8170 ca         1 3ND      -0.131000
     11 N11         -0.3420    -0.0040     6.2210 ns         1 3ND      -0.474100
     12 C12         -1.4910     0.6700     6.4250 c          1 3ND       0.679100
     13 C13         -2.0800     0.7530     7.8110 c3         1 3ND      -0.146700
     14 C14         -2.4940    -0.6500     8.3020 c3         1 3ND       0.140800
     15 N15         -3.9380    -0.7550     7.9650 n7         1 3ND      -0.785200
     16 C16         -4.4810     0.5930     8.2680 c3         1 3ND       0.142800
     17 C17         -3.3880     1.5720     7.7880 c3         1 3ND      -0.020400
     18 C18         -3.2860     2.7460     8.7270 ca         1 3ND      -0.085300
     19 C19         -3.4170     4.0330     8.2410 ca         1 3ND      -0.115000
     20 C20         -3.3250     5.1100     9.1020 ca         1 3ND      -0.119000
     21 C21         -3.1000     4.9000    10.4500 ca         1 3ND       0.029400
     22 C22         -2.9690     3.6110    10.9360 ca         1 3ND      -0.119000
     23 C23         -3.0670     2.5350    10.0750 ca         1 3ND      -0.115000
     24 Cl24        -2.9830     6.2530    11.5320 cl         1 3ND      -0.107400
     25 O25          3.2520     0.0010     1.0020 o          1 3ND      -0.502100
     26 Cl26         2.6240    -0.0040     6.2770 cl         1 3ND      -0.104400
     27 O27         -2.0510     1.2090     5.4950 o          1 3ND      -0.588100
     28 H1          -0.5390    -0.0000    -0.9400 h4         1 3ND       0.042800
     29 H4          -1.3770     0.9000     1.3160 hc         1 3ND       0.086200
     30 H4A         -1.3830    -0.8840     1.3200 hc         1 3ND       0.086200
     31 H7           3.3180    -0.0020     3.5190 ha         1 3ND       0.172000
     32 H10         -1.6230     0.0100     3.9040 ha         1 3ND       0.179000
     33 HN11         0.0970    -0.4860     6.9810 hn         1 3ND       0.336500
     34 H13         -1.3730     1.1970     8.5010 hc         1 3ND       0.082700
     35 H14         -1.9300    -1.4130     7.7790 h1         1 3ND       0.044700
     36 H14A        -2.3500    -0.7320     9.3720 h1         1 3ND       0.044700
     37 HN15        -4.3710    -1.4320     8.5610 hn         1 3ND       0.352800
     38 H16         -4.6430     0.7030     9.3340 h1         1 3ND       0.049700
     39 H16A        -5.4010     0.7600     7.7210 h1         1 3ND       0.049700
     40 H17         -3.6020     1.9070     6.7800 hc         1 3ND       0.106700
     41 H19         -3.5930     4.1970     7.1840 ha         1 3ND       0.139000
     42 H20         -3.4280     6.1190     8.7200 ha         1 3ND       0.145500
     43 H22         -2.7950     3.4460    11.9930 ha         1 3ND       0.145500
     44 H23         -2.9650     1.5260    10.4560 ha         1 3ND       0.139000
@<TRIPOS>BOND
     1     2     1 2
     2     4     1 1
     3     1    28 1
     4     3     2 1
     5    25     3 2
     6     6     3 1
     7     5     4 1
     8     4    29 1
     9     4    30 1
    10     6     5 ar
    11    10     5 ar
    12     7     6 ar
    13     8     7 ar
    14     7    31 1
    15    26     8 1
    16     8     9 ar
    17    11     9 1
    18     9    10 ar
    19    10    32 1
    20    12    11 1
    21    11    33 1
    22    27    12 2
    23    13    12 1
    24    14    13 1
    25    13    17 1
    26    13    34 1
    27    15    14 1
    28    14    35 1
    29    14    36 1
    30    15    16 1
    31    15    37 1
    32    16    17 1
    33    16    38 1
    34    16    39 1
    35    17    18 1
    36    17    40 1
    37    18    19 ar
    38    18    23 ar
    39    19    20 ar
    40    19    41 1
    41    20    21 ar
    42    20    42 1
    43    22    21 ar
    44    21    24 1
    45    23    22 ar
    46    22    43 1
    47    23    44 1
@<TRIPOS>SUBSTRUCTURE
     1 3ND         1 TEMP              0 ****  ****    0 ROOT
