@<TRIPOS>MOLECULE
3NE
   31    33     1     0     0
SMALL
bcc


@<TRIPOS>ATOM
      1 C4           0.0000     0.0000     0.0000 ca         1 3NE      -0.009000
      2 C5           4.7410    -2.7580    -1.7200 cc         1 3NE      -0.185200
      3 C6           1.3940     0.0000     0.0000 ca         1 3NE      -0.132500
      4 C7          -0.6880     0.0010     1.1970 ca         1 3NE      -0.211300
      5 C8           3.7720    -2.0680    -1.0600 cd         1 3NE      -0.039400
      6 C10          3.1800    -0.9510    -1.6830 cd         1 3NE      -0.324100
      7 C13         -2.1940     0.0060     1.1980 c3         1 3NE       0.641200
      8 C1           1.3880     0.0010     2.4010 ca         1 3NE      -0.097000
      9 C2           2.0860     0.0000     1.2100 ca         1 3NE      -0.085000
     10 C3           0.0040    -0.0040     2.3940 ca         1 3NE      -0.031000
     11 C9           5.1430    -2.3480    -3.0030 c          1 3NE       0.597700
     12 C11          2.1390    -0.0010    -1.2820 cd         1 3NE       0.493800
     13 C12          3.5940    -0.5690    -2.9600 cc         1 3NE      -0.230700
     14 N15          2.8660     0.5210    -3.3090 na         1 3NE       0.432400
     15 N16          4.5800    -1.2770    -3.5950 ns         1 3NE       0.083900
     16 N17          1.9880     0.8480    -2.2720 nc         1 3NE      -0.611800
     17 O18          6.0130    -2.9690    -3.5890 o          1 3NE      -0.668500
     18 F19         -2.6560     0.6650     2.3430 f          1 3NE      -0.207300
     19 F20         -2.6590     0.6700     0.0580 f          1 3NE      -0.207300
     20 F21         -2.6650    -1.3110     1.1970 f          1 3NE      -0.207300
     21 F22          1.9510    -2.3300     0.4420 f          1 3NE      -0.202633
     22 F23          3.6660    -3.8380     0.5170 f          1 3NE      -0.202633
     23 F24          3.9840    -1.7080     1.2770 f          1 3NE      -0.202633
     24 H4          -0.5430     0.0000    -0.9380 ha         1 3NE       0.126000
     25 H5           5.2030    -3.6210    -1.2570 ha         1 3NE       0.154000
     26 H1           1.9240    -0.0010     3.3420 ha         1 3NE       0.115000
     27 H2           3.1690     0.0020     1.2160 ha         1 3NE       0.133000
     28 H3          -0.5390    -0.0040     3.3310 ha         1 3NE       0.118000
     29 HN16         4.8790    -1.0000    -4.5090 hn         1 3NE       0.169500
     30 HN15         2.9460     1.0160    -4.1750 hn         1 3NE       0.155700
     31 C14          3.3350    -2.4940     0.3190 c3         1 3NE       0.637100
@<TRIPOS>BOND
     1     1     3 ar  
     2     1     4 ar  
     3     1    24 1   
     4     2     5 2   
     5     2    11 1   
     6     2    25 1   
     7     3     9 ar  
     8     3    12 1   
     9     4     7 1   
    10     4    10 ar  
    11     5     6 1   
    12     5    31 1   
    13     6    12 1   
    14     6    13 2   
    15     7    18 1   
    16     7    19 1   
    17     7    20 1   
    18     8     9 ar  
    19     8    10 ar  
    20     8    26 1   
    21     9    27 1   
    22    10    28 1   
    23    11    15 1   
    24    11    17 2   
    25    12    16 2   
    26    13    14 1   
    27    13    15 1   
    28    14    16 1   
    29    14    30 1   
    30    15    29 1   
    31    21    31 1   
    32    22    31 1   
    33    23    31 1   
@<TRIPOS>SUBSTRUCTURE
     1 3NE         1 TEMP              0 ****  ****    0 ROOT
