@<TRIPOS>MOLECULE
molecule
   36    39     1     0     0
SMALL
bcc


@<TRIPOS>ATOM
      1 C1           0.0000     0.0000     0.0000 ca         1 3NG       0.422600
      2 C2           1.4140     0.0000     0.0000 ca         1 3NG      -0.158300
      3 C3           2.1190     0.0000     1.2070 ca         1 3NG      -0.164000
      4 C4           1.4460    -0.0010     2.3920 ca         1 3NG      -0.085000
      5 C5           0.0430    -0.0020     2.4130 ca         1 3NG      -0.082600
      6 C6          -0.6780     0.0050     1.2270 ca         1 3NG      -0.154300
      7 C7           1.3280     0.0020    -2.4640 ca         1 3NG      -0.146300
      8 C8           2.1140     0.0010    -1.2870 ca         1 3NG      -0.100300
      9 N9          -0.6940     0.0010    -1.1520 nb         1 3NG      -0.731000
     10 C10         -0.1300     0.0020    -2.3350 ca         1 3NG       0.666200
     11 C11          3.3510     0.0040    -3.7120 ca         1 3NG       0.390200
     12 N12          4.0590     0.0030    -2.5960 nb         1 3NG      -0.696000
     13 C13          3.5030     0.0010    -1.4020 ca         1 3NG       0.431200
     14 C14          1.9820     0.0030    -3.6970 ca         1 3NG      -0.233300
     15 N15         -0.9170     0.0030    -3.4710 nu         1 3NG      -0.775300
     16 C16         -2.3060    -0.1150    -3.3590 ca         1 3NG       0.179600
     17 C17         -3.1350     0.5330    -4.2650 ca         1 3NG      -0.175000
     18 C18         -4.5060     0.4140    -4.1510 ca         1 3NG       0.045400
     19 C19         -5.0540    -0.3490    -3.1350 ca         1 3NG      -0.153000
     20 C20         -4.2310    -0.9950    -2.2310 ca         1 3NG      -0.099000
     21 C21         -2.8580    -0.8850    -2.3430 ca         1 3NG      -0.118000
     22 Cl22        -5.5440     1.2230    -5.2840 cl         1 3NG      -0.134400
     23 C23         -0.6710    -0.0030     3.7060 c          1 3NG       0.878200
     24 O24         -1.8850    -0.0050     3.7290 o          1 3NG      -0.827800
     25 O25          0.0240    -0.0050     4.8600 o          1 3NG      -0.827800
     26 H3           3.1760    -0.0010     1.4440 ha         1 3NG       0.121000
     27 H4           2.0720    -0.0040     3.2760 ha         1 3NG       0.153000
     28 H6          -1.7470     0.1760     1.2680 ha         1 3NG       0.170000
     29 H11          3.8680     0.0050    -4.6640 h4         1 3NG       0.010100
     30 H13          4.1220     0.0010    -0.5130 h4         1 3NG       0.034100
     31 H14          1.4190     0.0040    -4.6230 ha         1 3NG       0.122000
     32 HN15        -0.4910     0.0650    -4.3750 hn         1 3NG       0.448800
     33 H17         -2.7070     1.1310    -5.0610 ha         1 3NG       0.135000
     34 H19         -6.1300    -0.4390    -3.0460 ha         1 3NG       0.136000
     35 H20         -4.6630    -1.5940    -1.4380 ha         1 3NG       0.142000
     36 H21         -2.2130    -1.3910    -1.6350 ha         1 3NG       0.176000
@<TRIPOS>BOND
     1     1     2 ar
     2     1     9 ar
     3     1     6 ar
     4     2     3 ar
     5     8     2 ar
     6     3     4 ar
     7     3    26 1
     8     4     5 ar
     9     4    27 1
    10     5     6 ar
    11     5    23 1
    12     6    28 1
    13    14     7 ar
    14    10     7 ar
    15     7     8 ar
    16     8    13 ar
    17    10     9 ar
    18    15    10 1
    19    14    11 ar
    20    11    12 ar
    21    11    29 1
    22    12    13 ar
    23    13    30 1
    24    14    31 1
    25    16    15 1
    26    15    32 1
    27    21    16 ar
    28    16    17 ar
    29    18    17 ar
    30    17    33 1
    31    19    18 ar
    32    18    22 1
    33    20    19 ar
    34    19    34 1
    35    20    21 ar
    36    20    35 1
    37    21    36 1
    38    24    23 1
    39    23    25 1
@<TRIPOS>SUBSTRUCTURE
     1 3NG         1 TEMP              0 ****  ****    0 ROOT
