@<TRIPOS>MOLECULE
3NJ
   13    13     1     0     0
SMALL
bcc


@<TRIPOS>ATOM
      1 C1          0.0910    0.3940    0.0130 c         1 3NJ      0.725800
      2 C2         -0.5910   -0.2860    2.2530 c         1 3NJ      0.744800
      3 C3          0.6170    0.1510    2.9480 cc        1 3NJ     -0.269200
      4 C4          1.8730    0.1130    2.4470 cd        1 3NJ      0.204500
      5 C5          2.2160   -0.3490    1.1010 cd        1 3NJ     -0.115000
      6 C6          1.4100   -0.2490    0.0410 cc        1 3NJ     -0.180200
      7 O3         -0.8750    0.1080    0.9570 os        1 3NJ     -0.445200
      8 F4          2.9260    0.4770    3.2190 f         1 3NJ     -0.146500
      9 O2         -1.5200   -0.9220    2.7440 o         1 3NJ     -0.528500
     10 O1         -0.3340    1.1370   -0.8680 o         1 3NJ     -0.527500
     11 H1          0.4350    0.4800    3.9880 ha        1 3NJ      0.189000
     12 H2          3.2260   -0.7890    1.0020 ha        1 3NJ      0.169000
     13 H3          1.7280   -0.6230   -0.9510 ha        1 3NJ      0.179000
@<TRIPOS>BOND
     1    1    6 1   
     2    1    7 1   
     3    1   10 2   
     4    2    3 1   
     5    2    7 1   
     6    2    9 2   
     7    3    4 2   
     8    3   11 1   
     9    4    5 1   
    10    4    8 1   
    11    5    6 2   
    12    5   12 1   
    13    6   13 1   
@<TRIPOS>SUBSTRUCTURE
     1 3NJ         1 TEMP              0 ****  ****    0 ROOT
