@<TRIPOS>MOLECULE
molecule
   13    13     1     0     0
SMALL
bcc


@<TRIPOS>ATOM
      1 C1           0.0000     0.0000     0.0000 c          1 3NJ       0.742800
      2 C2          -0.6210    -0.1320     2.2320 c          1 3NJ       0.759800
      3 C3           0.6320    -0.1760     2.9840 cc         1 3NJ      -0.278200
      4 C4           1.8070    -0.0760     2.4530 cd         1 3NJ       0.211500
      5 C5           2.1930     0.0000     1.0670 cd         1 3NJ      -0.122000
      6 C6           1.4620     0.0000     0.0000 cc         1 3NJ      -0.183200
      7 O3          -0.7170    -0.6160     0.9700 os         1 3NJ      -0.458200
      8 F4           2.8310    -0.0430     3.3330 f          1 3NJ      -0.162500
      9 O2          -1.5980     0.3500     2.7500 o          1 3NJ      -0.512500
     10 O1          -0.5850     0.5690    -0.8880 o          1 3NJ      -0.512500
     11 H1           0.5720    -0.3020     4.0580 ha         1 3NJ       0.187000
     12 H2           3.2590     0.0680     0.8920 ha         1 3NJ       0.153000
     13 H3           1.9680    -0.0000    -0.9580 ha         1 3NJ       0.175000
@<TRIPOS>BOND
     1     8     4 1
     2     3     4 2
     3     3     2 1
     4     4     5 1
     5     7     2 1
     6     7     1 1
     7     2     9 2
     8     5     6 2
     9     1     6 1
    10     1    10 2
    11     3    11 1
    12     5    12 1
    13     6    13 1
@<TRIPOS>SUBSTRUCTURE
     1 3NJ         1 TEMP              0 ****  ****    0 ROOT
