@<TRIPOS>MOLECULE
3NK
   32    33     1     0     0
SMALL
bcc


@<TRIPOS>ATOM
      1 C14         0.7620   -0.5130   -0.4000 c3        1 3NK     -0.205100
      2 C13         1.2470    0.7040    0.3120 c         1 3NK      0.583100
      3 C12         2.1160    0.4700    1.5220 c3        1 3NK     -0.291400
      4 C11         3.4700   -0.1010    1.2030 c         1 3NK      0.596700
      5 O11         3.7350   -0.6020    0.1020 o         1 3NK     -0.540100
      6 C2          4.4800   -0.0300    2.2800 ca        1 3NK     -0.191600
      7 C1          5.8120   -0.2040    1.9600 ca        1 3NK     -0.031000
      8 C9          6.8160   -0.1360    2.9610 ca        1 3NK     -0.087000
      9 C8          8.1910   -0.3040    2.6460 ca        1 3NK     -0.071000
     10 C7          9.1530   -0.2370    3.6240 ca        1 3NK     -0.189000
     11 C6          8.7670    0.0030    4.9700 ca        1 3NK      0.139100
     12 O6          9.6610    0.0870    6.0190 os        1 3NK     -0.324900
     13 C15        11.0380   -0.0740    5.6960 c3        1 3NK      0.112700
     14 C5          7.4340    0.1720    5.3130 ca        1 3NK     -0.169000
     15 C10         6.4390    0.1030    4.3090 ca        1 3NK      0.018000
     16 C4          5.0580    0.2680    4.6160 ca        1 3NK     -0.133000
     17 C3          4.1070    0.2060    3.6310 ca        1 3NK     -0.093000
     18 ONA         0.9470    1.8490   -0.0360 o         1 3NK     -0.526100
     19 H141        0.0570   -0.2370   -1.2210 hc        1 3NK      0.071700
     20 H142        1.6410   -1.0540   -0.8380 hc        1 3NK      0.071700
     21 H143        0.2410   -1.1960    0.3150 hc        1 3NK      0.071700
     22 H121        2.2540    1.4450    2.0660 hc        1 3NK      0.091700
     23 H122        1.5880   -0.2440    2.2110 hc        1 3NK      0.091700
     24 H1          6.1070   -0.3990    0.9150 ha        1 3NK      0.155000
     25 H3          3.0440    0.3320    3.8870 ha        1 3NK      0.133000
     26 H8          8.4740   -0.4900    1.5980 ha        1 3NK      0.140000
     27 H7         10.2140   -0.3690    3.3680 ha        1 3NK      0.142000
     28 H5          7.1490    0.3570    6.3580 ha        1 3NK      0.154000
     29 H151       11.5490    0.0360    6.6860 h1        1 3NK      0.046700
     30 H152       11.2270   -1.0880    5.2670 h1        1 3NK      0.046700
     31 H4          4.7720    0.4480    5.6640 ha        1 3NK      0.140000
     32 H153       11.3740    0.7220    4.9890 h1        1 3NK      0.046700
@<TRIPOS>BOND
     1    1    2 1   
     2    1   19 1   
     3    1   20 1   
     4    1   21 1   
     5    2    3 1   
     6    2   18 2   
     7    3    4 1   
     8    3   22 1   
     9    3   23 1   
    10    4    5 2   
    11    4    6 1   
    12    6    7 ar  
    13    6   17 ar  
    14    7    8 ar  
    15    7   24 1   
    16    8    9 ar  
    17    8   15 ar  
    18    9   10 ar  
    19    9   26 1   
    20   10   11 ar  
    21   10   27 1   
    22   11   12 1   
    23   11   14 ar  
    24   12   13 1   
    25   13   29 1   
    26   13   30 1   
    27   13   32 1   
    28   14   15 ar  
    29   14   28 1   
    30   15   16 ar  
    31   16   17 ar  
    32   16   31 1   
    33   17   25 1   
@<TRIPOS>SUBSTRUCTURE
     1 3NK         1 TEMP              0 ****  ****    0 ROOT
