@<TRIPOS>MOLECULE
molecule
   58    62     1     0     0
SMALL
bcc


@<TRIPOS>ATOM
      1 C30          0.0000     0.0000     0.0000 cc         1 3NL      -0.166300
      2 C27          1.7880     0.0000     1.3350 cd         1 3NL       0.341200
      3 C26          1.3580     0.0000     0.0000 cd         1 3NL      -0.156700
      4 C31         -1.7990     0.0040     1.7600 c3         1 3NL       0.076000
      5 C23          3.5260     0.0010    -0.9950 c          1 3NL       0.679700
      6 C13          9.9760     0.0020    -2.0930 cd         1 3NL       0.351200
      7 C16          8.8950     0.0070    -4.0450 cc         1 3NL      -0.178300
      8 C02         16.1280    -1.9890    -2.7670 ca         1 3NL       0.010400
      9 C03         17.2550    -2.1430    -1.9820 ca         1 3NL      -0.109000
     10 C04         17.3270    -1.5260    -0.7460 ca         1 3NL      -0.128000
     11 C05         16.2730    -0.7550    -0.2930 ca         1 3NL      -0.110000
     12 C06         15.1440    -0.5960    -1.0730 ca         1 3NL      -0.110000
     13 C07         15.0700    -1.2090    -2.3170 ca         1 3NL       0.173600
     14 N08         13.6910     0.0070    -4.1690 ns         1 3NL      -0.654100
     15 C09         12.5200     0.0050    -3.5020 c          1 3NL       0.812100
     16 O10         12.5120     0.0030    -2.2870 o          1 3NL      -0.691100
     17 C12         10.1320     0.0060    -3.4870 cd         1 3NL      -0.114700
     18 N14          8.6950    -0.0030    -1.8220 nc         1 3NL      -0.498800
     19 N15          7.9880     0.0020    -3.0300 na         1 3NL       0.138300
     20 C17          6.5930     0.0000    -3.1710 ca         1 3NL       0.051800
     21 C18          6.0220     0.0010    -4.4370 ca         1 3NL      -0.145000
     22 C19          4.6470    -0.0000    -4.5810 ca         1 3NL      -0.112000
     23 C20          3.8330    -0.0000    -3.4670 ca         1 3NL      -0.131000
     24 C21          4.3960    -0.0010    -2.1900 ca         1 3NL      -0.124600
     25 C22          5.7840    -0.0050    -2.0460 ca         1 3NL      -0.075000
     26 O24          4.0190     0.0000     0.1160 o          1 3NL      -0.598100
     27 N25          2.1860     0.0000    -1.1380 ns         1 3NL      -0.445100
     28 N28          0.7310    -0.0060     2.1070 nc         1 3NL      -0.502800
     29 N29         -0.4090    -0.0010     1.2950 na         1 3NL       0.064400
     30 C32         -2.3660     1.4420     1.7480 c3         1 3NL      -0.098400
     31 C33         -3.1270     1.5030     0.4000 c3         1 3NL       0.133800
     32 N34         -3.7190     0.1470     0.2830 n7         1 3NL      -0.796200
     33 C35         -2.6900    -0.7890     0.7880 c3         1 3NL       0.124800
     34 H301        -0.6400    -0.0000    -0.8740 h4         1 3NL       0.163000
     35 H271         2.8180    -0.0010     1.6690 h4         1 3NL       0.094100
     36 H311        -1.8680    -0.4160     2.7570 h1         1 3NL       0.094700
     37 H131        10.7780     0.0010    -1.3650 h4         1 3NL       0.097100
     38 H161         8.6710     0.0100    -5.1050 h4         1 3NL       0.169000
     39 H041        18.2110    -1.6480    -0.1320 ha         1 3NL       0.150000
     40 H051        16.3320    -0.2750     0.6770 ha         1 3NL       0.155000
     41 H061        14.3200     0.0110    -0.7170 ha         1 3NL       0.194000
     42 H081        14.1540     0.3760    -4.9760 hn         1 3NL       0.337500
     43 H181         6.6570     0.0010    -5.3150 ha         1 3NL       0.137000
     44 H191         4.2080     0.0000    -5.5720 ha         1 3NL       0.137000
     45 H201         2.7560    -0.0010    -3.5830 ha         1 3NL       0.124000
     46 H221         6.2260    -0.0990    -1.0610 ha         1 3NL       0.187000
     47 H251         1.7800     0.0010    -2.0530 hn         1 3NL       0.321500
     48 H322        -3.0460     1.5910     2.5770 hc         1 3NL       0.070700
     49 H321        -1.5630     2.1690     1.7660 hc         1 3NL       0.070700
     50 H332        -3.9040     2.2570     0.4350 h1         1 3NL       0.044700
     51 H331        -2.4400     1.6900    -0.4170 h1         1 3NL       0.044700
     52 H341        -3.9090    -0.0530    -0.6800 hn         1 3NL       0.350800
     53 H351        -3.1650    -1.6110     1.3100 h1         1 3NL       0.054700
     54 H352        -2.0950    -1.1620    -0.0370 h1         1 3NL       0.054700
     55 N11         11.3570     0.0070    -4.1840 ns         1 3NL      -0.469100
     56 H031        18.0820    -2.7470    -2.3340 ha         1 3NL       0.161000
     57 Cl1         16.0370    -2.7630    -4.3180 cl         1 3NL      -0.072400
     58 H111        11.3630     0.0100    -5.1840 hn         1 3NL       0.316500
@<TRIPOS>BOND
     1    22    21 ar
     2    22    23 ar
     3    21    20 ar
     4    23    24 ar
     5    20    19 1
     6    20    25 ar
     7    24    25 ar
     8    24     5 1
     9    19     7 1
    10    19    18 1
    11    16    15 2
    12     7    17 2
    13     5    26 2
    14     5    27 1
    15    18     6 2
    16    17     6 1
    17    17    55 1
    18    15    55 1
    19    15    14 1
    20    27     3 1
    21    57     8 1
    22    14    13 1
    23     3     1 2
    24     3     2 1
    25     1    29 1
    26    13     8 ar
    27    13    12 ar
    28     8     9 ar
    29    30     4 1
    30    30    31 1
    31     2    28 2
    32    29     4 1
    33    29    28 1
    34     4    33 1
    35     9    10 ar
    36    31    32 1
    37    12    11 ar
    38    33    32 1
    39    11    10 ar
    40     1    34 1
    41     2    35 1
    42     4    36 1
    43     6    37 1
    44     7    38 1
    45     9    56 1
    46    10    39 1
    47    11    40 1
    48    12    41 1
    49    14    42 1
    50    55    58 1
    51    21    43 1
    52    22    44 1
    53    23    45 1
    54    25    46 1
    55    27    47 1
    56    30    48 1
    57    30    49 1
    58    31    50 1
    59    31    51 1
    60    32    52 1
    61    33    53 1
    62    33    54 1
@<TRIPOS>SUBSTRUCTURE
     1 3NL         1 TEMP              0 ****  ****    0 ROOT
