@<TRIPOS>MOLECULE
3NL
   58    59     1     0     0
SMALL
bcc


@<TRIPOS>ATOM
      1 C30         0.8700    0.6640   -0.6860 c2        1 3NL     -0.166000
      2 C27         2.8200    0.6030    0.4810 c2        1 3NL     -0.157000
      3 C26         2.2660    0.8300   -0.8460 c2        1 3NL     -0.062000
      4 C31        -0.6140    0.1180    1.2420 c2        1 3NL     -0.107000
      5 C23         4.2970    1.3390   -2.1190 c2        1 3NL      0.356000
      6 C13         9.0750    0.5410   -2.1310 c1        1 3NL      0.019000
      7 C16         8.3290   -1.3160   -3.3330 c2        1 3NL     -0.159000
      8 C02        15.4290   -1.8740   -1.9270 c3        1 3NL     -0.041000
      9 C03        16.4350   -1.8640   -0.8860 c1        1 3NL     -0.018000
     10 C04        17.7510   -1.3960   -1.0370 c2        1 3NL     -0.525000
     11 C05        18.6590   -1.4710   -0.0690 c1        1 3NL      0.394000
     12 C06        14.0640   -0.6210   -0.2730 c2        1 3NL     -0.203000
     13 C07        14.1320   -1.2370   -1.4680 c2        1 3NL      0.012000
     14 N08        13.0700   -1.3950   -2.3850 n         1 3NL     -0.323000
     15 C09        11.7240   -1.1590   -2.0310 c2        1 3NL      0.388000
     16 O10        11.3500   -1.0590   -0.8480 o         1 3NL     -0.335000
     17 C12         9.4940   -0.6930   -2.8950 c2        1 3NL     -0.086000
     18 N14         7.7340    0.5740   -2.2520 n3        1 3NL     -0.173000
     19 N15         7.1950   -0.5750   -2.8610 n3        1 3NL     -0.098000
     20 C17         6.0770   -0.4690   -3.7570 c2        1 3NL     -0.001000
     21 C18         5.4310   -1.5660   -4.1990 c2        1 3NL     -0.222000
     22 C19         4.0400    3.9910   -4.4180 c1        1 3NL     -0.151000
     23 C20         4.3870    2.9250   -3.9970 c1        1 3NL     -0.158000
     24 C21         4.8060    1.6780   -3.4950 c2        1 3NL     -0.022000
     25 C22         5.6270    0.8670   -4.1850 c2        1 3NL     -0.068000
     26 O24         5.0720    1.2580   -1.1470 o         1 3NL     -0.354000
     27 N25         2.9350    1.1340   -2.0230 n         1 3NL     -0.275000
     28 N28         1.8220    0.3260    1.3540 n2        1 3NL     -0.076000
     29 N29         0.6670    0.3630    0.6670 na        1 3NL     -0.048000
     30 C32        -1.7700    0.8920    0.6890 c3        1 3NL     -0.111000
     31 C33        -2.6000    0.0770   -0.2740 c3        1 3NL     -0.216000
     32 N34        -1.9400   -1.1780    2.8310 n3        1 3NL     -0.333000
     33 C35        -0.7460   -0.7930    2.2560 c2        1 3NL     -0.018000
     34 H301        0.0510    0.7290   -1.3990 h4        1 3NL      0.178000
     35 H271        3.8740    0.6440    0.7690 h4        1 3NL      0.212000
     36 H311        0.1370   -1.3380    2.6540 h4        1 3NL      0.165000
     37 H131        7.0950    1.1320   -1.7180 hn        1 3NL      0.298000
     38 H161        8.1680   -2.2230   -3.9150 h4        1 3NL      0.175000
     39 H041       18.0800   -0.9260   -1.9980 ha        1 3NL      0.199000
     40 H051       13.1450   -0.1540    0.1110 ha        1 3NL      0.149000
     41 H061       14.9300   -0.5940    0.4020 ha        1 3NL      0.149000
     42 H081       13.3280   -1.2580   -3.3400 hn        1 3NL      0.233000
     43 H181        5.7290   -2.5880   -3.9360 ha        1 3NL      0.132000
     44 H191        4.5520   -1.4780   -4.8500 ha        1 3NL      0.132000
     45 H201        3.7320    4.9380   -4.7850 ha        1 3NL      0.232000
     46 H221        6.0120    1.1770   -5.1740 ha        1 3NL      0.155000
     47 H251        2.3740    1.2600   -2.8340 hn        1 3NL      0.238000
     48 H322       -2.4140    1.2370    1.5440 hc        1 3NL      0.089000
     49 H321       -1.4150    1.8250    0.1720 hc        1 3NL      0.089000
     50 H332       -3.4620    0.6840   -0.6430 hc        1 3NL      0.078000
     51 H331       -2.9980   -0.8420    0.2200 hc        1 3NL      0.078000
     52 H341       -1.9870   -0.2390   -1.1520 hc        1 3NL      0.078000
     53 H351       -2.7320   -0.6050    2.6440 hn        1 3NL      0.192000
     54 H352       -1.8710   -1.4720    3.7790 hn        1 3NL      0.192000
     55 N11        10.8070   -1.0790   -3.1260 n         1 3NL     -0.280000
     56 H031       15.2590   -2.9670   -2.1720 h1        1 3NL      0.169000
     57 CL1        15.9060   -1.1580   -3.5160 cl        1 3NL     -0.206000
     58 H111       10.9180   -1.7680   -3.8400 hn        1 3NL      0.211000
@<TRIPOS>BOND
     1    1    3 1   
     2    1   29 1   
     3    1   34 1   
     4    2    3 1   
     5    2   28 1   
     6    2   35 1   
     7    3   27 1   
     8    4   29 1   
     9    4   30 1   
    10    4   33 1   
    11    5   24 1   
    12    5   26 1   
    13    5   27 1   
    14    6   17 1   
    15    6   18 1   
    16    7   17 1   
    17    7   19 1   
    18    7   38 1   
    19    8    9 1   
    20    8   13 1   
    21    8   56 1   
    22    8   57 1   
    23    9   10 1   
    24   10   11 1   
    25   10   39 1   
    26   12   13 1   
    27   12   40 1   
    28   12   41 1   
    29   13   14 1   
    30   14   15 1   
    31   14   42 1   
    32   15   16 1   
    33   15   55 1   
    34   17   55 1   
    35   18   19 1   
    36   18   37 1   
    37   19   20 1   
    38   20   21 1   
    39   20   25 1   
    40   21   43 1   
    41   21   44 1   
    42   22   23 1   
    43   22   45 1   
    44   23   24 1   
    45   24   25 1   
    46   25   46 1   
    47   27   47 1   
    48   28   29 1   
    49   30   31 1   
    50   30   48 1   
    51   30   49 1   
    52   31   50 1   
    53   31   51 1   
    54   31   52 1   
    55   32   33 1   
    56   32   53 1   
    57   32   54 1   
    58   33   36 1   
    59   55   58 1   
@<TRIPOS>SUBSTRUCTURE
     1 3NL         1 TEMP              0 ****  ****    0 ROOT
