@<TRIPOS>MOLECULE
3NM
   23    23     1     0     0
SMALL
bcc


@<TRIPOS>ATOM
      1 N           0.1240   -0.0860   -0.1400 nc        1 3NM     -0.674000
      2 P           6.1930    2.2790    1.1370 p5        1 3NM      1.318900
      3 S           0.4170   -0.0490    2.4210 ss        1 3NM     -0.324300
      4 C1          2.4430    0.4400   -0.9660 c3        1 3NM     -0.140400
      5 O1         -2.3330   -1.8450    1.1240 o         1 3NM     -0.838300
      6 C2          1.4730    0.2100    0.1330 cc        1 3NM      0.313600
      7 O2         -2.8730    0.3130    1.1580 o         1 3NM     -0.838300
      8 C3         -0.5510   -0.2560    0.9810 cd        1 3NM      0.422900
      9 O3          5.0020    1.9480    2.3580 os        1 3NM     -0.574200
     10 C4         -2.0260   -0.6200    1.0870 c         1 3NM      0.836100
     11 O4          6.0690    3.7670    0.9400 o         1 3NM     -0.939500
     12 C5          1.8080    0.2620    1.4790 cd        1 3NM     -0.102700
     13 O5          7.4660    1.8130    1.7950 o         1 3NM     -0.939500
     14 C6          3.1430    0.4640    2.0580 c3        1 3NM     -0.055100
     15 O6          5.6830    1.4320   -0.0040 o         1 3NM     -0.939500
     16 C7          3.7080    1.8930    1.9060 c3        1 3NM      0.243400
     17 H1          3.4790    0.6270   -0.5560 hc        1 3NM      0.056033
     18 H1A         2.1390    1.3340   -1.5650 hc        1 3NM      0.056033
     19 H1B         2.4750   -0.4440   -1.6490 hc        1 3NM      0.056033
     20 H6          3.8680   -0.2340    1.5520 hc        1 3NM      0.043200
     21 H6A         3.1310    0.2030    3.1490 hc        1 3NM      0.043200
     22 H7          3.0570    2.5790    2.5290 h1        1 3NM     -0.010800
     23 H7A         3.6380    2.2080    0.8280 h1        1 3NM     -0.010800
@<TRIPOS>BOND
     1    1    6 1   
     2    1    8 2   
     3    2    9 1   
     4    2   11 1   
     5    2   13 1   
     6    2   15 1   
     7    3    8 1   
     8    3   12 1   
     9    4    6 1   
    10    4   17 1   
    11    4   18 1   
    12    4   19 1   
    13    5   10 1   
    14    6   12 2   
    15    7   10 1   
    16    8   10 1   
    17    9   16 1   
    18   12   14 1   
    19   14   16 1   
    20   14   20 1   
    21   14   21 1   
    22   16   22 1   
    23   16   23 1   
@<TRIPOS>SUBSTRUCTURE
     1 3NM         1 TEMP              0 ****  ****    0 ROOT
