@<TRIPOS>MOLECULE
molecule
   23    23     1     0     0
SMALL
bcc


@<TRIPOS>ATOM
      1 N            0.0000     0.0000     0.0000 nc         1 3NM      -0.663000
      2 P            6.1510     2.7960     1.9360 p5         1 3NM       1.200900
      3 S            0.6780    -0.0020     2.4160 ss         1 3NM      -0.249300
      4 C1           2.1070     0.0020    -1.2770 c3         1 3NM      -0.108400
      5 O1          -2.4430    -0.0030     2.5610 o          1 3NM      -0.838300
      6 C2           1.3060     0.0000     0.0000 cc         1 3NM       0.318600
      7 O2          -2.8820    -0.0010     0.3840 o          1 3NM      -0.838300
      8 C3          -0.5700    -0.0010     1.1750 cd         1 3NM       0.439900
      9 O3           5.2870     1.4450     1.7880 os         1 3NM      -0.593200
     10 C4          -2.0210    -0.0020     1.4220 c          1 3NM       0.814100
     11 O4           5.5610     3.6440     2.9960 o          1 3NM      -0.921500
     12 C5           1.8910     0.0000     1.2090 cd         1 3NM      -0.146700
     13 O5           7.6670     2.4230     2.3280 o          1 3NM      -0.921500
     14 C6           3.3770     0.0010     1.4610 c3         1 3NM      -0.015100
     15 O6           6.1380     3.5960     0.5400 o          1 3NM      -0.921500
     16 C7           3.8780     1.4440     1.5480 c3         1 3NM       0.225400
     17 H1           2.6310     0.9450    -1.3740 hc         1 3NM       0.035033
     18 H1A          2.8250    -0.8090    -1.2540 hc         1 3NM       0.035033
     19 H1B          1.4410    -0.1300    -2.1210 hc         1 3NM       0.035033
     20 H6           3.5850    -0.5100     2.3940 hc         1 3NM       0.038200
     21 H6A          3.8810    -0.5090     0.6500 hc         1 3NM       0.038200
     22 H7           3.3730     1.9540     2.3590 h1         1 3NM       0.017200
     23 H7A          3.6700     1.9550     0.6150 h1         1 3NM       0.017200
@<TRIPOS>BOND
     1     8     1 2   
     2     1     6 1   
     3    11     2 1   
     4    15     2 1   
     5     2     9 1   
     6     2    13 1   
     7     8     3 1   
     8     3    12 1   
     9     6     4 1   
    10     4    17 1   
    11     4    18 1   
    12     4    19 1   
    13     5    10 1   
    14    12     6 2   
    15     7    10 1   
    16    10     8 1   
    17    16     9 1   
    18    12    14 1   
    19    16    14 1   
    20    14    20 1   
    21    14    21 1   
    22    16    22 1   
    23    16    23 1   
@<TRIPOS>SUBSTRUCTURE
     1 3NM         1 TEMP              0 ****  ****    0 ROOT
