@<TRIPOS>MOLECULE
molecule
   12    11     1     0     0
SMALL
bcc


@<TRIPOS>ATOM
      1 O1           0.0000     0.0000     0.0000 o          1 3NP      -0.839800
      2 O2           1.9450     0.0020    -1.0460 o          1 3NP      -0.839800
      3 O4           5.2820     0.7460     2.4490 o          1 3NP      -0.249500
      4 O3           3.9910    -0.7460     3.1940 o          1 3NP      -0.249500
      5 C1           1.3420     0.0000     0.0000 c          1 3NP       0.895600
      6 C2           2.0960     0.0000     1.3050 c3         1 3NP      -0.198400
      7 C3           3.5990     0.0010     1.0260 c3         1 3NP      -0.055700
      8 N1           4.3320    -0.0000     2.2940 no         1 3NP       0.221300
      9 H21          1.8330     0.8840     1.8740 hc         1 3NP       0.056200
     10 H22          1.8350    -0.8850     1.8730 hc         1 3NP       0.056200
     11 H31          3.8600     0.8870     0.4590 h1         1 3NP       0.102200
     12 H32          3.8610    -0.8820     0.4560 h1         1 3NP       0.102200
@<TRIPOS>BOND
     1     1     5 1   
     2     2     5 1   
     3     3     8 1   
     4     4     8 1   
     5     5     6 1   
     6     6     7 1   
     7     6     9 1   
     8     6    10 1   
     9     7     8 1   
    10     7    11 1   
    11     7    12 1   
@<TRIPOS>SUBSTRUCTURE
     1 3NP         1 TEMP              0 ****  ****    0 ROOT
