@<TRIPOS>MOLECULE
molecule
   60    64     1     0     0
SMALL
bcc


@<TRIPOS>ATOM
      1 C1           0.0000     0.0000     0.0000 c3         1 3NQ      -0.079000
      2 C3           1.5280     0.0000     0.0000 c3         1 3NQ      -0.085400
      3 C4           2.0270     0.0000     1.4490 c3         1 3NQ       0.146100
      4 O6           3.4560     0.0080     1.4580 oh         1 3NQ      -0.603800
      5 C8           1.5070     1.2380     2.1770 c3         1 3NQ      -0.095400
      6 C9          -0.0240     1.2530     2.1550 c3         1 3NQ      -0.071400
      7 C10         -0.5000     1.2650     0.7030 c3         1 3NQ      -0.056000
      8 C11          0.0700     2.4960    -0.0040 c3         1 3NQ      -0.096100
      9 C12         -2.0260     1.3110     0.6440 c3         1 3NQ      -0.057700
     10 C13         -2.4690     1.4390    -0.8230 c3         1 3NQ      -0.058700
     11 C15         -2.0230     0.1970    -1.6030 c3         1 3NQ      -0.150700
     12 C16         -0.5350     0.0030    -1.4130 c2         1 3NQ       0.389300
     13 N17          0.2450    -0.1520    -2.4160 n2         1 3NQ      -0.446200
     14 O18         -0.2820    -0.1450    -3.7300 oh         1 3NQ      -0.396500
     15 C20         -3.9840     1.5310    -0.8270 c3         1 3NQ      -0.067700
     16 C22         -4.3410     2.8620    -0.1030 c3         1 3NQ      -0.031800
     17 C23         -3.4370     3.9780    -0.6300 c3         1 3NQ      -0.091100
     18 C24         -4.0540     2.6590     1.3660 c3         1 3NQ      -0.066400
     19 C25         -2.5330     2.4660     1.5000 c3         1 3NQ      -0.082400
     20 C26         -5.7440     3.1180    -0.5430 ce         1 3NQ      -0.071400
     21 C27         -6.7610     3.8740     0.2170 ca         1 3NQ      -0.158100
     22 C28         -7.2320     3.3980     1.4410 ca         1 3NQ       0.432200
     23 N29         -8.1380     4.0720     2.1180 nb         1 3NQ      -0.690000
     24 C30         -8.6340     5.2110     1.6760 ca         1 3NQ       0.417200
     25 C31         -8.2180     5.7500     0.4720 ca         1 3NQ      -0.255300
     26 C32         -7.2630     5.0850    -0.2760 ca         1 3NQ      -0.084000
     27 C33         -5.9280     2.5470    -1.7420 c2         1 3NQ      -0.159200
     28 C34         -4.6480     1.8340    -2.1780 c3         1 3NQ      -0.053200
     29 H1          -0.3640    -0.8750     0.5250 hc         1 3NQ       0.067700
     30 H2           1.8900     0.8870    -0.5070 hc         1 3NQ       0.065700
     31 H3           1.8900    -0.8870    -0.5070 hc         1 3NQ       0.065700
     32 H4           1.6640    -0.8890     1.9520 h1         1 3NQ       0.026700
     33 H5           3.7720    -0.7710     1.8860 ho         1 3NQ       0.401000
     34 H6           1.8510     1.2200     3.2050 hc         1 3NQ       0.054700
     35 H7           1.8810     2.1270     1.6840 hc         1 3NQ       0.054700
     36 H8          -0.3850     2.1400     2.6620 hc         1 3NQ       0.047700
     37 H9          -0.4010     0.3660     2.6510 hc         1 3NQ       0.047700
     38 H10         -0.2990     3.3930     0.4780 hc         1 3NQ       0.044033
     39 H11          1.1520     2.4760     0.0510 hc         1 3NQ       0.044033
     40 H12         -0.2380     2.4920    -1.0430 hc         1 3NQ       0.044033
     41 H13         -2.4170     0.3830     1.0450 hc         1 3NQ       0.051700
     42 H14         -2.0400     2.3300    -1.2650 hc         1 3NQ       0.074700
     43 H15         -2.5510    -0.6720    -1.2300 hc         1 3NQ       0.067700
     44 H16         -2.2390     0.3350    -2.6550 hc         1 3NQ       0.067700
     45 H17          0.3910    -0.3980    -4.3400 ho         1 3NQ       0.428000
     46 H18         -4.4410     0.6800    -0.3370 hc         1 3NQ       0.068700
     47 H19         -3.5830     4.0880    -1.6980 hc         1 3NQ       0.042700
     48 H20         -3.6860     4.9090    -0.1350 hc         1 3NQ       0.042700
     49 H21         -2.4020     3.7290    -0.4310 hc         1 3NQ       0.042700
     50 H22         -4.3660     3.5320     1.9270 hc         1 3NQ       0.048200
     51 H23         -4.5710     1.7770     1.7240 hc         1 3NQ       0.048200
     52 H24         -2.2960     2.2640     2.5380 hc         1 3NQ       0.048200
     53 H25         -2.0350     3.3770     1.1910 hc         1 3NQ       0.048200
     54 H27         -6.8500     2.4650     1.8380 h4         1 3NQ       0.028100
     55 H28         -9.3800     5.7320     2.2640 h4         1 3NQ       0.022100
     56 H29         -8.6300     6.6890     0.1210 ha         1 3NQ       0.138000
     57 H30         -6.9190     5.4840    -1.2220 ha         1 3NQ       0.140000
     58 H31         -6.5570     3.0290    -2.4800 ha         1 3NQ       0.140000
     59 H33         -4.0260     2.4890    -2.7750 hc         1 3NQ       0.056200
     60 H34         -4.8790     0.9170    -2.7070 hc         1 3NQ       0.056200
@<TRIPOS>BOND
     1    14    13 1
     2    13    12 2
     3    12    11 1
     4    12     1 1
     5    11    10 1
     6     2     1 1
     7     2     3 1
     8     1     7 1
     9    28    15 1
    10    28    27 1
    11     4     3 1
    12    10    15 1
    13    10     9 1
    14     8     7 1
    15     3     5 1
    16    15    16 1
    17     7     9 1
    18     7     6 1
    19    27    20 2
    20    17    16 1
    21     9    19 1
    22     5     6 1
    23    16    20 1
    24    16    18 1
    25    20    21 1
    26    19    18 1
    27    21    22 ar
    28    21    26 ar
    29    22    23 ar
    30    26    25 ar
    31    23    24 ar
    32    25    24 ar
    33     1    29 1
    34     2    30 1
    35     2    31 1
    36     3    32 1
    37     4    33 1
    38     5    34 1
    39     5    35 1
    40     6    36 1
    41     6    37 1
    42     8    38 1
    43     8    39 1
    44     8    40 1
    45     9    41 1
    46    10    42 1
    47    11    43 1
    48    11    44 1
    49    14    45 1
    50    15    46 1
    51    17    47 1
    52    17    48 1
    53    17    49 1
    54    18    50 1
    55    18    51 1
    56    19    52 1
    57    19    53 1
    58    22    54 1
    59    24    55 1
    60    25    56 1
    61    26    57 1
    62    27    58 1
    63    28    59 1
    64    28    60 1
@<TRIPOS>SUBSTRUCTURE
     1 3NQ         1 TEMP              0 ****  ****    0 ROOT
