@<TRIPOS>MOLECULE
3NQ
   60    64     1     0     0
SMALL
bcc


@<TRIPOS>ATOM
      1 C1           0.0000     0.0000     0.0000 c3         1 3NQ      -0.055000
      2 C3           1.5280     0.0000     0.0000 c3         1 3NQ      -0.052400
      3 C4           2.0270     0.0000     1.4490 c3         1 3NQ       0.193100
      4 O6           3.4560     0.0080     1.4580 oh         1 3NQ      -0.584800
      5 C8           1.5070     1.2380     2.1770 c3         1 3NQ      -0.054400
      6 C9          -0.0240     1.2530     2.1550 c3         1 3NQ      -0.022400
      7 C10         -0.5000     1.2650     0.7030 c3         1 3NQ      -0.055000
      8 C11          0.0700     2.4960    -0.0040 c3         1 3NQ      -0.037100
      9 C12         -2.0260     1.3110     0.6440 c3         1 3NQ      -0.033700
     10 C13         -2.4690     1.4390    -0.8230 c3         1 3NQ      -0.058700
     11 C15         -2.0230     0.1970    -1.6030 c3         1 3NQ      -0.082700
     12 C16         -0.5350     0.0030    -1.4130 c2         1 3NQ       0.359300
     13 N17          0.2450    -0.1520    -2.4160 n2         1 3NQ      -0.401200
     14 O18         -0.2820    -0.1450    -3.7300 oh         1 3NQ      -0.377500
     15 C20         -3.9840     1.5310    -0.8270 c3         1 3NQ      -0.052700
     16 C22         -4.3410     2.8620    -0.1030 c3         1 3NQ      -0.020800
     17 C23         -3.4370     3.9780    -0.6300 c3         1 3NQ      -0.041100
     18 C24         -4.0540     2.6590     1.3660 c3         1 3NQ      -0.010400
     19 C25         -2.5330     2.4660     1.5000 c3         1 3NQ      -0.053400
     20 C26         -5.7440     3.1180    -0.5430 ce         1 3NQ      -0.062400
     21 C27         -6.7610     3.8740     0.2170 ca         1 3NQ      -0.146100
     22 C28         -7.2320     3.3980     1.4410 ca         1 3NQ       0.405200
     23 N29         -8.1380     4.0720     2.1180 nb         1 3NQ      -0.582000
     24 C30         -8.6340     5.2110     1.6760 ca         1 3NQ       0.400200
     25 C31         -8.2180     5.7500     0.4720 ca         1 3NQ      -0.221300
     26 C32         -7.2630     5.0850    -0.2760 ca         1 3NQ      -0.059000
     27 C33         -5.9280     2.5470    -1.7420 c2         1 3NQ      -0.150200
     28 C34         -4.6480     1.8340    -2.1780 c3         1 3NQ       0.010800
     29 H1          -0.3640    -0.8750     0.5250 hc         1 3NQ       0.039700
     30 H2           1.8900    -0.8870    -0.5070 hc         1 3NQ       0.040200
     31 H3           1.8900     0.8870    -0.5070 hc         1 3NQ       0.040200
     32 H4           1.6640    -0.8890     1.9520 h1         1 3NQ      -0.004300
     33 H5           3.7720    -0.7760     1.8770 ho         1 3NQ       0.387000
     34 H6           1.8510     1.2200     3.2050 hc         1 3NQ       0.027700
     35 H7           1.8810     2.1270     1.6840 hc         1 3NQ       0.027700
     36 H8          -0.3850     2.1400     2.6620 hc         1 3NQ       0.022700
     37 H9          -0.4010     0.3660     2.6510 hc         1 3NQ       0.022700
     38 H10         -0.2990     3.3930     0.4780 hc         1 3NQ       0.022033
     39 H11         -0.2380     2.4920    -1.0430 hc         1 3NQ       0.022033
     40 H12          1.1520     2.4760     0.0510 hc         1 3NQ       0.022033
     41 H13         -2.4170     0.3830     1.0450 hc         1 3NQ       0.030700
     42 H14         -2.0400     2.3300    -1.2650 hc         1 3NQ       0.068700
     43 H15         -2.2390     0.3350    -2.6550 hc         1 3NQ       0.035700
     44 H16         -2.5510    -0.6720    -1.2300 hc         1 3NQ       0.035700
     45 H17          0.4010    -0.3570    -4.3440 ho         1 3NQ       0.416000
     46 H18         -4.4410     0.6800    -0.3370 hc         1 3NQ       0.045700
     47 H19         -4.0360     4.8530    -0.8520 hc         1 3NQ       0.022700
     48 H20         -2.6970     4.2280     0.1210 hc         1 3NQ       0.022700
     49 H21         -2.9380     3.6440    -1.5320 hc         1 3NQ       0.022700
     50 H22         -4.3660     3.5320     1.9270 hc         1 3NQ       0.021700
     51 H23         -4.5710     1.7770     1.7240 hc         1 3NQ       0.021700
     52 H24         -2.2960     2.2640     2.5380 hc         1 3NQ       0.032700
     53 H25         -2.0350     3.3770     1.1910 hc         1 3NQ       0.032700
     54 H27         -6.8500     2.4650     1.8380 h4         1 3NQ      -0.013900
     55 H28         -9.3800     5.7320     2.2640 h4         1 3NQ      -0.020900
     56 H29         -8.6300     6.6890     0.1210 ha         1 3NQ       0.113000
     57 H30         -6.9190     5.4840    -1.2220 ha         1 3NQ       0.115000
     58 H31         -6.8940     2.1340    -2.0030 ha         1 3NQ       0.121000
     59 H33         -4.8790     0.9170    -2.7070 hc         1 3NQ       0.026200
     60 H34         -4.0260     2.4890    -2.7750 hc         1 3NQ       0.026200
@<TRIPOS>BOND
     1     1     2 1   
     2     1     7 1   
     3     1    12 1   
     4     1    29 1   
     5     2     3 1   
     6     2    30 1   
     7     2    31 1   
     8     3     4 1   
     9     3     5 1   
    10     3    32 1   
    11     4    33 1   
    12     5     6 1   
    13     5    34 1   
    14     5    35 1   
    15     6     7 1   
    16     6    36 1   
    17     6    37 1   
    18     7     8 1   
    19     7     9 1   
    20     8    38 1   
    21     8    39 1   
    22     8    40 1   
    23     9    10 1   
    24     9    19 1   
    25     9    41 1   
    26    10    11 1   
    27    10    15 1   
    28    10    42 1   
    29    11    12 1   
    30    11    43 1   
    31    11    44 1   
    32    12    13 2   
    33    13    14 1   
    34    14    45 1   
    35    15    16 1   
    36    15    28 1   
    37    15    46 1   
    38    16    17 1   
    39    16    18 1   
    40    16    20 1   
    41    17    47 1   
    42    17    48 1   
    43    17    49 1   
    44    18    19 1   
    45    18    50 1   
    46    18    51 1   
    47    19    52 1   
    48    19    53 1   
    49    20    21 1   
    50    20    27 2   
    51    21    22 ar  
    52    21    26 ar  
    53    22    23 ar  
    54    22    54 1   
    55    23    24 ar  
    56    24    25 ar  
    57    24    55 1   
    58    25    26 ar  
    59    25    56 1   
    60    26    57 1   
    61    27    28 1   
    62    27    58 1   
    63    28    59 1   
    64    28    60 1   
@<TRIPOS>SUBSTRUCTURE
     1 3NQ         1 TEMP              0 ****  ****    0 ROOT
