@<TRIPOS>MOLECULE
molecule
   17    17     1     0     0
SMALL
bcc


@<TRIPOS>ATOM
      1 C1           0.0000     0.0000     0.0000 ca         1 3NT      -0.087300
      2 C2           1.3820     0.0000     0.0000 ca         1 3NT      -0.073000
      3 C3           2.0730     0.0000     1.1970 ca         1 3NT      -0.151200
      4 C4           1.3820    -0.0090     2.3950 ca         1 3NT      -0.077000
      5 C5          -0.0010    -0.0140     2.3950 ca         1 3NT      -0.131000
      6 C6          -0.6920    -0.0100     1.1970 ca         1 3NT      -0.089000
      7 C7          -0.7530     0.0040    -1.3050 c3         1 3NT      -0.048800
      8 N3           3.5530     0.0050     1.1980 no         1 3NT       0.294200
      9 O1N          4.1620     0.0030     2.2530 o          1 3NT      -0.206000
     10 O2N          4.1620     0.0130     0.1440 o          1 3NT      -0.206000
     11 H2           1.9240     0.0070    -0.9380 ha         1 3NT       0.166000
     12 H4           1.9240    -0.0110     3.3330 ha         1 3NT       0.165000
     13 H5          -0.5430    -0.0210     3.3330 ha         1 3NT       0.147000
     14 H6          -1.7750    -0.0120     1.1970 ha         1 3NT       0.143000
     15 H7C1        -0.6910    -0.9760    -1.7610 hc         1 3NT       0.051367
     16 H7C2        -0.3180     0.7400    -1.9710 hc         1 3NT       0.051367
     17 H7C3        -1.7910     0.2530    -1.1220 hc         1 3NT       0.051367
@<TRIPOS>BOND
     1     1     2 ar
     2     1     6 ar
     3     1     7 1
     4     2     3 ar
     5     2    11 1
     6     3     4 ar
     7     3     8 1
     8     4     5 ar
     9     4    12 1
    10     5     6 ar
    11     5    13 1
    12     6    14 1
    13     7    15 1
    14     7    16 1
    15     7    17 1
    16     8     9 1
    17     8    10 1
@<TRIPOS>SUBSTRUCTURE
     1 3NT         1 TEMP              0 ****  ****    0 ROOT
