@<TRIPOS>MOLECULE
molecule
   46    48     1     0     0
SMALL
bcc


@<TRIPOS>ATOM
      1 C1           0.0000     0.0000     0.0000 cc         1 3NU      -0.376800
      2 N1           1.7740     0.0000     1.2840 na         1 3NU      -0.037600
      3 C2           1.3670     0.0000     0.0000 cd         1 3NU      -0.086300
      4 N2           0.6400    -0.0010     2.1040 nd         1 3NU      -0.516800
      5 C3          -0.4230    -0.0010     1.3450 cc         1 3NU       0.396600
      6 N3          -2.4890     0.0170    -3.3570 nb         1 3NU      -0.813000
      7 C4          -2.9850     0.0100    -2.1280 ca         1 3NU       0.950900
      8 N4          -2.2000     0.0050    -1.0620 nb         1 3NU      -0.810000
      9 C5          -0.8760     0.0060    -1.1950 ca         1 3NU       0.614800
     10 N5          -4.3580     0.0090    -1.9560 nu         1 3NU      -0.894900
     11 C6          -0.3240     0.0120    -2.4800 ca         1 3NU      -0.452600
     12 N6          -7.7090     0.8680    -4.3610 n3         1 3NU      -0.734600
     13 C7          -1.1810     0.0180    -3.5640 ca         1 3NU       0.503200
     14 C8          -1.8520    -0.0010     1.8230 c3         1 3NU      -0.108000
     15 C9          -2.1080    -1.2510     2.6670 c3         1 3NU      -0.084100
     16 C10         -2.1070     1.2470     2.6690 c3         1 3NU      -0.084100
     17 C11         -5.2440     0.0160    -3.1230 c3         1 3NU       0.249500
     18 C12         -6.5950    -0.5950    -2.7440 c3         1 3NU      -0.094400
     19 C13         -7.5360    -0.5310    -3.9490 c3         1 3NU       0.166800
     20 C14         -6.4320     1.4630    -4.7750 c3         1 3NU       0.166800
     21 C15         -5.4580     1.4570    -3.5940 c3         1 3NU      -0.094400
     22 H2           2.0070     0.0010    -0.8740 h4         1 3NU       0.173000
     23 HN5         -4.7460    -0.0190    -1.0330 hn         1 3NU       0.455800
     24 H6           0.7500     0.0120    -2.6220 ha         1 3NU       0.136000
     25 H7          -0.7860     0.0230    -4.5730 h4         1 3NU       0.024100
     26 H8          -2.5190    -0.0010     0.9690 hc         1 3NU       0.105700
     27 H9          -3.1650    -1.3250     2.8910 hc         1 3NU       0.036533
     28 H9A         -1.5470    -1.1820     3.5920 hc         1 3NU       0.036533
     29 H9B         -1.7920    -2.1290     2.1180 hc         1 3NU       0.036533
     30 H10         -3.1650     1.3220     2.8910 hc         1 3NU       0.036533
     31 H10A        -1.7900     2.1260     2.1210 hc         1 3NU       0.036533
     32 H10B        -1.5480     1.1760     3.5940 hc         1 3NU       0.036533
     33 H11         -4.7990    -0.5620    -3.9240 h1         1 3NU       0.077700
     34 H12         -7.0250    -0.0370    -1.9210 hc         1 3NU       0.055950
     35 H12A        -6.4530    -1.6290    -2.4520 hc         1 3NU       0.055950
     36 H13         -8.4980    -0.9480    -3.6770 h1         1 3NU       0.035950
     37 H13A        -7.1100    -1.0970    -4.7680 h1         1 3NU       0.035950
     38 H14         -6.5980     2.4830    -5.0980 h1         1 3NU       0.035950
     39 H14A        -6.0130     0.8840    -5.5890 h1         1 3NU       0.035950
     40 H15         -4.5100     1.8790    -3.9060 hc         1 3NU       0.055950
     41 H15A        -5.8720     2.0430    -2.7830 hc         1 3NU       0.055950
     42 H16         -9.6540     0.5710    -5.0830 h1         1 3NU       0.031700
     43 H16A        -8.3770     0.4360    -6.2990 h1         1 3NU       0.031700
     44 H16B        -8.8480     2.0260    -5.6850 h1         1 3NU       0.031700
     45 HN1          2.7240     0.0000     1.5970 hn         1 3NU       0.331700
     46 C16         -8.7130     0.9830    -5.4270 c3         1 3NU       0.154100
@<TRIPOS>BOND
     1     1     3 2
     2     9     1 1
     3     1     5 1
     4     2     3 1
     5     4     2 1
     6     3    22 1
     7     5     4 2
     8    14     5 1
     9     6     7 ar
    10     6    13 ar
    11    10     7 1
    12     7     8 ar
    13     8     9 ar
    14     9    11 ar
    15    17    10 1
    16    10    23 1
    17    13    11 ar
    18    11    24 1
    19    46    12 1
    20    19    12 1
    21    20    12 1
    22    13    25 1
    23    16    14 1
    24    14    15 1
    25    14    26 1
    26    15    27 1
    27    15    28 1
    28    15    29 1
    29    16    30 1
    30    16    31 1
    31    16    32 1
    32    17    18 1
    33    17    21 1
    34    17    33 1
    35    19    18 1
    36    18    34 1
    37    18    35 1
    38    19    36 1
    39    19    37 1
    40    20    21 1
    41    20    38 1
    42    20    39 1
    43    21    40 1
    44    21    41 1
    45    46    42 1
    46    46    43 1
    47    46    44 1
    48     2    45 1
@<TRIPOS>SUBSTRUCTURE
     1 3NU         1 TEMP              0 ****  ****    0 ROOT
