@<TRIPOS>MOLECULE
molecule
   51    54     1     0     0
SMALL
bcc


@<TRIPOS>ATOM
      1 C1           0.0000     0.0000     0.0000 c3         1 3NV       0.164300
      2 N1           1.4690     0.0000     0.0000 nh         1 3NV      -0.594000
      3 Cl1          0.8710     7.3820    -8.0550 cl         1 3NV      -0.046400
      4 C2          -0.5070    -1.2410     0.7370 c3         1 3NV       0.155800
      5 N2           0.0170    -1.2410     2.1100 n7         1 3NV      -0.821200
      6 C3           1.4870    -1.2420     2.1100 c3         1 3NV       0.155800
      7 N3           1.5720     3.0100    -2.0210 nb         1 3NV      -0.659000
      8 C4           1.9940     0.0000     1.3720 c3         1 3NV       0.164300
      9 N4           3.3150     4.3180    -2.9000 nu         1 3NV      -0.851600
     10 C5           1.1060     1.9850    -1.3330 ca         1 3NV       0.402200
     11 N5           2.7840     9.3110    -7.5880 na         1 3NV      -0.030600
     12 C6           1.9710     1.0850    -0.7290 ca         1 3NV      -0.058700
     13 N6           3.6540     9.7070    -6.5650 nc         1 3NV      -0.499800
     14 C7           3.3460     1.2740    -0.8560 ca         1 3NV      -0.088000
     15 N7           1.1070     4.8870    -3.4170 nb         1 3NV      -0.722000
     16 C8           3.7970     2.3600    -1.5850 ca         1 3NV      -0.277300
     17 N8           2.8490     6.0920    -4.3470 nb         1 3NV      -0.789000
     18 C9           2.8710     3.2200    -2.1630 ca         1 3NV       0.655200
     19 C10          2.4980     7.9670    -5.8740 cd         1 3NV      -0.350800
     20 C11          2.0820     8.2460    -7.1580 cc         1 3NV       0.048100
     21 C12          3.4900     8.9140    -5.5410 cd         1 3NV       0.394600
     22 C13          4.2310     8.9940    -4.2320 c3         1 3NV      -0.093000
     23 C14          5.7310     8.8290    -4.4830 c3         1 3NV      -0.085600
     24 C15          3.9700    10.3550    -3.5820 c3         1 3NV      -0.085600
     25 C16          1.9970     6.8770    -5.0050 ca         1 3NV       0.586800
     26 C17          0.6240     6.6570    -4.8630 ca         1 3NV      -0.416600
     27 C18          0.2040     5.6290    -4.0410 ca         1 3NV       0.483200
     28 C19          2.4030     5.1180    -3.5710 ca         1 3NV       0.925900
     29 H1          -0.3600     0.8900     0.5020 h1         1 3NV       0.049200
     30 H1A         -0.3600    -0.0160    -1.0220 h1         1 3NV       0.049200
     31 H2          -1.5900    -1.2260     0.7650 h1         1 3NV       0.040950
     32 H2A         -0.1660    -2.1310     0.2220 h1         1 3NV       0.040950
     33 HN2         -0.3170    -2.0510     2.5950 hn         1 3NV       0.355800
     34 H3           1.8460    -2.1310     1.6070 h1         1 3NV       0.040950
     35 H3A          1.8470    -1.2260     3.1310 h1         1 3NV       0.040950
     36 H4           3.0770    -0.0150     1.3430 h1         1 3NV       0.049200
     37 H4A          1.6530     0.8900     1.8880 h1         1 3NV       0.049200
     38 HN4          4.2910     4.5310    -2.9390 hn         1 3NV       0.471800
     39 H5           0.0360     1.8450    -1.2390 h4         1 3NV       0.031100
     40 H7           4.0450     0.5870    -0.3950 ha         1 3NV       0.144000
     41 H8           4.8590     2.5370    -1.7050 ha         1 3NV       0.136000
     42 H13          3.8860     8.2070    -3.5730 hc         1 3NV       0.078700
     43 H14          6.1100     9.7050    -4.9950 hc         1 3NV       0.040033
     44 H14A         5.8990     7.9520    -5.0970 hc         1 3NV       0.040033
     45 H14B         6.2450     8.7120    -3.5370 hc         1 3NV       0.040033
     46 H15          2.9030    10.5030    -3.4700 hc         1 3NV       0.040033
     47 H15A         4.3800    11.1380    -4.2070 hc         1 3NV       0.040033
     48 H15B         4.4430    10.3860    -2.6070 hc         1 3NV       0.040033
     49 H17         -0.0940     7.2790    -5.3850 ha         1 3NV       0.148000
     50 H18         -0.8530     5.4310    -3.9080 h4         1 3NV       0.030100
     51 HN5          2.7000     9.7440    -8.4860 hn         1 3NV       0.338700
@<TRIPOS>BOND
     1     1     2 1
     2     1     4 1
     3     1    29 1
     4     1    30 1
     5    12     2 1
     6     2     8 1
     7     3    20 1
     8     4     5 1
     9     4    31 1
    10     4    32 1
    11     5     6 1
    12     5    33 1
    13     8     6 1
    14     6    34 1
    15     6    35 1
    16    18     7 ar
    17     7    10 ar
    18     8    36 1
    19     8    37 1
    20    28     9 1
    21     9    18 1
    22     9    38 1
    23    12    10 ar
    24    10    39 1
    25    11    13 1
    26    11    20 1
    27    14    12 ar
    28    13    21 2
    29    16    14 ar
    30    14    40 1
    31    27    15 ar
    32    15    28 ar
    33    16    18 ar
    34    16    41 1
    35    25    17 ar
    36    17    28 ar
    37    20    19 2
    38    21    19 1
    39    19    25 1
    40    21    22 1
    41    23    22 1
    42    22    24 1
    43    22    42 1
    44    23    43 1
    45    23    44 1
    46    23    45 1
    47    24    46 1
    48    24    47 1
    49    24    48 1
    50    26    25 ar
    51    26    27 ar
    52    26    49 1
    53    27    50 1
    54    11    51 1
@<TRIPOS>SUBSTRUCTURE
     1 3NV         1 TEMP              0 ****  ****    0 ROOT
