@<TRIPOS>MOLECULE
3NW
   68    70     1     0     0
SMALL
bcc


@<TRIPOS>ATOM
      1 C1           0.0000     0.0000     0.0000 ca         1 3NW      -0.426600
      2 C2           1.4010     0.0000     0.0000 ca         1 3NW       0.593800
      3 N3           2.0480     0.0000     1.1670 nb         1 3NW      -0.706000
      4 C4           1.3820     0.0000     2.3110 ca         1 3NW       0.737900
      5 N5           0.0590    -0.0010     2.3490 nb         1 3NW      -0.708000
      6 C6          -0.6590     0.0040     1.2260 cp         1 3NW       0.527800
      7 C7           2.1490    -0.0000    -1.2710 cc         1 3NW      -0.245900
      8 C8           3.4920    -0.0060    -1.4010 cd         1 3NW       0.466200
      9 N9           3.9150    -0.0050    -2.6450 nd         1 3NW      -0.687000
     10 C10          3.0100     0.0010    -3.5780 cc         1 3NW       0.585300
     11 S11          1.4460    -0.0010    -2.8860 ss         1 3NW      -0.328300
     12 N12          3.2730     0.0030    -4.9350 nu         1 3NW      -0.450900
     13 C13          4.6590    -0.0010    -5.4110 c3         1 3NW       0.126500
     14 C14          4.7120    -0.6070    -6.8160 c3         1 3NW      -0.011600
     15 C15          5.1870     1.4340    -5.4550 c3         1 3NW      -0.011600
     16 N16          2.0890    -0.0000     3.5010 nu         1 3NW      -0.490900
     17 C17         -4.9080     0.0070     1.3850 ca         1 3NW      -0.090000
     18 C18         -2.1420     0.0050     1.2800 cp         1 3NW      -0.148500
     19 C19         -2.7960     0.0100     2.5120 ca         1 3NW      -0.073300
     20 C20         -4.1750     0.0110     2.5570 ca         1 3NW      -0.097000
     21 C21         -4.2640     0.0010     0.1610 ca         1 3NW      -0.105000
     22 C22         -2.8860     0.0000     0.1020 ca         1 3NW      -0.086000
     23 C23         -1.9980     0.0150     3.7900 c3         1 3NW       0.090300
     24 C24          6.0940    -0.2370     6.2440 c3         1 3NW       0.181100
     25 N25          5.5510     0.0010     4.9000 n3         1 3NW      -0.539600
     26 C26          4.0820     0.0000     4.9180 c3         1 3NW       0.140800
     27 C27          3.5540    -0.0000     3.4820 c3         1 3NW       0.156800
     28 C28          6.0710     1.2540     4.3360 c3         1 3NW       0.181100
     29 N29         -1.5350     1.3760     4.0720 ns         1 3NW      -0.185900
     30 C30         -0.7980     1.6230     5.1730 c          1 3NW       0.576100
     31 N31         -0.3720     2.8750     5.4330 ns         1 3NW      -0.233900
     32 O32         -0.5160     0.7150     5.9320 o          1 3NW      -0.723100
     33 C33          0.4300     3.1430     6.6290 c3         1 3NW       0.069000
     34 C34          0.7790     4.6310     6.6860 c3         1 3NW      -0.010100
     35 H1          -0.5560     0.0020    -0.9300 ha         1 3NW       0.140000
     36 H8           4.1650    -0.0100    -0.5520 h4         1 3NW       0.014100
     37 HN12         2.5180    -0.0260    -5.5910 hn         1 3NW       0.297800
     38 H13          5.2700    -0.5910    -4.7400 h1         1 3NW       0.057700
     39 H14          4.1260     0.0010    -7.4940 hc         1 3NW       0.011533
     40 H14A         5.7400    -0.6390    -7.1560 hc         1 3NW       0.011533
     41 H14B         4.3080    -1.6120    -6.7910 hc         1 3NW       0.011533
     42 H15          5.2940     1.8100    -4.4450 hc         1 3NW       0.011533
     43 H15A         6.1510     1.4490    -5.9500 hc         1 3NW       0.011533
     44 H15B         4.4910     2.0590    -6.0020 hc         1 3NW       0.011533
     45 HN16         1.6000    -0.0370     4.3740 hn         1 3NW       0.320800
     46 H17         -5.9910     0.0080     1.4260 ha         1 3NW       0.103000
     47 H20         -4.6840     0.0150     3.5130 ha         1 3NW       0.111000
     48 H21         -4.8440    -0.0020    -0.7550 ha         1 3NW       0.104000
     49 H22         -2.3840    -0.0040    -0.8580 ha         1 3NW       0.114000
     50 H23         -2.6220    -0.3300     4.6060 h1         1 3NW       0.050200
     51 H23A        -1.1440    -0.6420     3.6850 h1         1 3NW       0.050200
     52 H24          5.7390    -1.1920     6.6130 h1         1 3NW       0.002700
     53 H24A         5.7680     0.5520     6.9110 h1         1 3NW       0.002700
     54 H24B         7.1770    -0.2480     6.1990 h1         1 3NW       0.002700
     55 H26          3.7270     0.8850     5.4330 h1         1 3NW       0.015200
     56 H26A         3.7270    -0.8840     5.4340 h1         1 3NW       0.015200
     57 H27          3.9080     0.8840     2.9670 h1         1 3NW       0.030700
     58 H27A         3.9080    -0.8850     2.9670 h1         1 3NW       0.030700
     59 H28          6.1320     1.1670     3.2580 h1         1 3NW       0.002700
     60 H28A         7.0570     1.4500     4.7400 h1         1 3NW       0.002700
     61 H28B         5.4060     2.0700     4.5950 h1         1 3NW       0.002700
     62 HN29        -1.7960     2.1290     3.4660 hn         1 3NW       0.163500
     63 HN31        -0.6360     3.6280     4.8290 hn         1 3NW       0.167500
     64 H33         -0.1360     2.8710     7.5110 h1         1 3NW       0.019700
     65 H33A         1.3420     2.5600     6.5910 h1         1 3NW       0.019700
     66 H34          1.3980     4.8240     7.5530 hc         1 3NW       0.006367
     67 H34A        -0.1320     5.2130     6.7550 hc         1 3NW       0.006367
     68 H34B         1.3180     4.9100     5.7880 hc         1 3NW       0.006367
@<TRIPOS>BOND
     1     1     2 ar  
     2     1     6 ar  
     3     1    35 1   
     4     2     3 ar  
     5     2     7 1   
     6     3     4 ar  
     7     4     5 ar  
     8     4    16 1   
     9     5     6 ar  
    10     6    18 1   
    11     7     8 2   
    12     7    11 1   
    13     8     9 1   
    14     8    36 1   
    15     9    10 2   
    16    10    11 1   
    17    10    12 1   
    18    12    13 1   
    19    12    37 1   
    20    13    14 1   
    21    13    15 1   
    22    13    38 1   
    23    14    39 1   
    24    14    40 1   
    25    14    41 1   
    26    15    42 1   
    27    15    43 1   
    28    15    44 1   
    29    16    27 1   
    30    16    45 1   
    31    17    20 ar  
    32    17    21 ar  
    33    17    46 1   
    34    18    19 ar  
    35    18    22 ar  
    36    19    20 ar  
    37    19    23 1   
    38    20    47 1   
    39    21    22 ar  
    40    21    48 1   
    41    22    49 1   
    42    23    29 1   
    43    23    50 1   
    44    23    51 1   
    45    24    25 1   
    46    24    52 1   
    47    24    53 1   
    48    24    54 1   
    49    25    26 1   
    50    25    28 1   
    51    26    27 1   
    52    26    55 1   
    53    26    56 1   
    54    27    57 1   
    55    27    58 1   
    56    28    59 1   
    57    28    60 1   
    58    28    61 1   
    59    29    30 1   
    60    29    62 1   
    61    30    31 1   
    62    30    32 2   
    63    31    33 1   
    64    31    63 1   
    65    33    34 1   
    66    33    64 1   
    67    33    65 1   
    68    34    66 1   
    69    34    67 1   
    70    34    68 1   
@<TRIPOS>SUBSTRUCTURE
     1 3NW         1 TEMP              0 ****  ****    0 ROOT
