@<TRIPOS>MOLECULE
molecule
   16    17     1     0     0
SMALL
bcc


@<TRIPOS>ATOM
      1 N1           0.0000     0.0000     0.0000 na         1 3NY      -0.051100
      2 N2           1.4030     0.0000     0.0000 nc         1 3NY      -0.120400
      3 N3           1.8300     0.0000     1.2140 nd         1 3NY      -0.190400
      4 C4           0.7090    -0.0000     3.4740 ca         1 3NY       0.024000
      5 C5          -0.5140    -0.0000     4.0800 ca         1 3NY      -0.182200
      6 C6          -1.6790    -0.0000     3.3250 ca         1 3NY      -0.047000
      7 C7          -1.6250     0.0000     1.9590 ca         1 3NY      -0.142000
      8 O11          0.4210    -0.0000     6.2250 o          1 3NY      -0.201000
      9 O21         -1.6860    -0.0000     6.1050 o          1 3NY      -0.201000
     10 C3A          0.7930     0.0000     2.0760 ca         1 3NY       0.006400
     11 C7A         -0.3910     0.0000     1.3170 ca         1 3NY      -0.045200
     12 NO1         -0.5980    -0.0000     5.5570 no         1 3NY       0.297200
     13 H4           1.6120    -0.0000     4.0730 ha         1 3NY       0.184000
     14 H6          -2.6410    -0.0000     3.8230 ha         1 3NY       0.173000
     15 H7          -2.5390     0.0000     1.3790 ha         1 3NY       0.151000
     16 HN1         -0.5990    -0.0000    -0.8020 hn         1 3NY       0.345700
@<TRIPOS>BOND
     1     1     2 1   
     2     1    11 1   
     3     1    16 1   
     4     2     3 2   
     5     3    10 1   
     6     4     5 ar  
     7     4    13 1   
     8     5    12 1   
     9     6     5 ar  
    10     6    14 1   
    11     7     6 ar  
    12     7    15 1   
    13    10     4 ar  
    14    11     7 ar  
    15    11    10 ar  
    16    12     8 1   
    17    12     9 1   
@<TRIPOS>SUBSTRUCTURE
     1 3NY         1 TEMP              0 ****  ****    0 ROOT
