@<TRIPOS>MOLECULE
molecule
   58    61     1     0     0
SMALL
bcc


@<TRIPOS>ATOM
      1 O            0.0000     0.0000     0.0000 o          1 3NZ      -0.608100
      2 C            1.2130     0.0000     0.0000 c          1 3NZ       0.638100
      3 CA           1.9670     0.0000     1.3040 c3         1 3NZ       0.027500
      4 CB           2.4390    -1.4200     1.6220 c3         1 3NZ      -0.037100
      5 CG           3.2970    -1.3990     2.8610 ca         1 3NZ      -0.207300
      6 CD2          2.7150    -1.5630     4.1050 ca         1 3NZ      -0.090500
      7 CE2          3.5000    -1.5440     5.2430 ca         1 3NZ      -0.176500
      8 CZ           4.8710    -1.3620     5.1350 ca         1 3NZ       0.180100
      9 OM           5.6420    -1.3390     6.2530 os         1 3NZ      -0.307900
     10 CMZ          4.9770    -1.5130     7.5060 c3         1 3NZ       0.122700
     11 CE1          5.4500    -1.2000     3.8850 ca         1 3NZ      -0.176500
     12 CD1          4.6630    -1.2240     2.7510 ca         1 3NZ      -0.090500
     13 N            1.0860     0.4750     2.3790 nz         1 3NZ      -0.792600
     14 N3'          1.8860    -0.0080    -1.1680 ns         1 3NZ      -0.527900
     15 C3'          1.1530    -0.0140    -2.4360 c3         1 3NZ       0.049700
     16 C4'          0.8450    -1.4590    -2.8730 c3         1 3NZ       0.131100
     17 C5'         -0.6680    -1.6570    -2.9830 c3         1 3NZ       0.142400
     18 O5'         -0.9500    -3.0280    -3.2750 oh         1 3NZ      -0.594800
     19 C2'          2.0370     0.5500    -3.5760 c3         1 3NZ       0.089100
     20 O2'          3.1040     1.3400    -3.0500 oh         1 3NZ      -0.587800
     21 C1'          2.5790    -0.7440    -4.2360 c3         1 3NZ       0.260800
     22 O4'          1.4580    -1.6570    -4.1580 os         1 3NZ      -0.383600
     23 N9           2.9510    -0.4940    -5.6310 na         1 3NZ      -0.262000
     24 C8           2.1670    -0.7110    -6.7260 cc         1 3NZ       0.424700
     25 N7           2.8130    -0.3800    -7.8060 nd         1 3NZ      -0.568100
     26 C5           4.0470     0.0690    -7.4750 ca         1 3NZ      -0.208200
     27 C4           4.1480     0.0060    -6.0740 ca         1 3NZ       0.474800
     28 C6           5.1520     0.5490    -8.1990 ca         1 3NZ       0.795200
     29 N6           5.1080     0.6400    -9.5790 nv         1 3NZ      -0.976500
     30 N1           6.2390     0.9150    -7.5280 nb         1 3NZ      -0.825000
     31 C2           6.2890     0.8340    -6.2110 ca         1 3NZ       0.747900
     32 N3           5.2770     0.3960    -5.4900 nb         1 3NZ      -0.806000
     33 H1           2.8260     0.6560     1.2250 hx         1 3NZ       0.125700
     34 H2           3.0160    -1.8040     0.7890 hc         1 3NZ       0.093200
     35 H3           1.5780    -2.0570     1.7890 hc         1 3NZ       0.093200
     36 H4           1.6440    -1.7050     4.1880 ha         1 3NZ       0.130000
     37 H5           3.0440    -1.6720     6.2170 ha         1 3NZ       0.162000
     38 H6           5.7040    -1.4750     8.3080 h1         1 3NZ       0.053033
     39 H7           4.4750    -2.4730     7.5180 h1         1 3NZ       0.053033
     40 H8           4.2490    -0.7220     7.6410 h1         1 3NZ       0.053033
     41 H9           6.5210    -1.0600     3.7990 ha         1 3NZ       0.162000
     42 H10          5.1160    -1.0980     1.7750 ha         1 3NZ       0.130000
     43 H11          1.6340     0.7000     3.1860 hn         1 3NZ       0.463133
     44 H12          0.5950     1.2910     2.0720 hn         1 3NZ       0.463133
     45 H14          2.8870    -0.0100    -1.1680 hn         1 3NZ       0.348500
     46 H15          0.2370     0.5570    -2.3540 h1         1 3NZ       0.101700
     47 H16          1.2620    -2.1560    -2.1560 h1         1 3NZ       0.072700
     48 H17         -1.1370    -1.3840    -2.0450 h1         1 3NZ       0.039700
     49 H18         -1.0580    -1.0320    -3.7770 h1         1 3NZ       0.039700
     50 H19         -1.8800    -3.1430    -3.3790 ho         1 3NZ       0.417000
     51 H20          1.4380     1.1170    -4.2790 h1         1 3NZ       0.085700
     52 H21          2.9220     2.2530    -3.1970 ho         1 3NZ       0.426000
     53 H22          3.4210    -1.1300    -3.6750 h2         1 3NZ       0.098700
     54 H23          1.1570    -1.1010    -6.7010 h5         1 3NZ       0.091800
     55 H24          5.9510     0.7910   -10.0970 hn         1 3NZ       0.455300
     56 H25          4.2350     0.5520   -10.0590 hn         1 3NZ       0.455300
     57 H26          7.1950     1.1430    -5.7040 h5         1 3NZ       0.064100
     58 HN3          0.4060    -0.2290     2.5880 hn         1 3NZ       0.463133
@<TRIPOS>BOND
     1    29    28 1   
     2    25    26 1   
     3    25    24 2   
     4    28    26 ar  
     5    28    30 ar  
     6    26    27 ar  
     7    24    23 1   
     8    30    31 ar  
     9    27    23 1   
    10    27    32 ar  
    11    23    21 1   
    12    31    32 ar  
    13    22    21 1   
    14    22    16 1   
    15    21    19 1   
    16    16    17 1   
    17    16    15 1   
    18    17    18 1   
    19    19    20 1   
    20    19    15 1   
    21    15    14 1   
    22     1     2 2   
    23    10     9 1   
    24    14     2 1   
    25     2     3 1   
    26     9     8 1   
    27     8    11 ar  
    28     8     7 ar  
    29    11    12 ar  
    30     7     6 ar  
    31    12     5 ar  
    32     6     5 ar  
    33     5     4 1   
    34     3     4 1   
    35     3    13 1   
    36     3    33 1   
    37     4    34 1   
    38     4    35 1   
    39     6    36 1   
    40     7    37 1   
    41    10    38 1   
    42    10    39 1   
    43    10    40 1   
    44    11    41 1   
    45    12    42 1   
    46    13    43 1   
    47    13    44 1   
    48    14    45 1   
    49    15    46 1   
    50    16    47 1   
    51    17    48 1   
    52    17    49 1   
    53    18    50 1   
    54    19    51 1   
    55    20    52 1   
    56    21    53 1   
    57    24    54 1   
    58    29    55 1   
    59    29    56 1   
    60    31    57 1   
    61    58    13 1   
@<TRIPOS>SUBSTRUCTURE
     1 3NZ         1 TEMP              0 ****  ****    0 ROOT
