@<TRIPOS>MOLECULE
3O0
   36    36     1     0     0
SMALL
bcc


@<TRIPOS>ATOM
      1 CLA         1.9580    1.5540   -2.9170 cl        1 3O0     -0.095400
      2 CAC        12.2180    1.0290   -5.2430 c1        1 3O0     -0.061500
      3 CAD        11.9690   -2.2350   -1.2190 c1        1 3O0     -0.287500
      4 CAE        11.1340   -1.9110   -0.4160 cg        1 3O0      0.047000
      5 CAF         9.1530   -3.3530    3.0250 c1        1 3O0      0.654600
      6 CAG         8.4500   -2.5260    2.2960 ce        1 3O0     -0.495000
      7 CAH         7.0070   -2.5140    2.1030 ce        1 3O0      0.887500
      8 NAI         6.4150   -1.6360    1.2450 nf        1 3O0     -0.760300
      9 CAJ         4.5930    0.3930   -0.1710 ca        1 3O0     -0.123500
     10 CAK         3.4030    0.7340   -0.8090 ca        1 3O0     -0.116500
     11 CAL         3.4140    1.1400   -2.1450 ca        1 3O0      0.009400
     12 CAM        11.7870    0.9330   -4.1320 c1        1 3O0     -0.186100
     13 CAN        11.3050    0.8050   -2.7920 c3        1 3O0      0.014400
     14 CAO        10.1990   -1.5310    0.4790 cg        1 3O0     -1.055000
     15 OAP         9.8870   -4.0370    3.6600 o         1 3O0     -0.379500
     16 SAQ         9.2420   -1.1940    1.3790 sx        1 3O0      1.089300
     17 CAR         7.3270   -0.8100    0.6390 cf        1 3O0      0.060600
     18 NAS         7.0540    0.1240   -0.2680 nh        1 3O0     -0.518400
     19 CAT         5.8130    0.4480   -0.8720 ca        1 3O0      0.091600
     20 CAU         5.8110    0.8680   -2.2230 ca        1 3O0     -0.123500
     21 CAV         4.6200    1.2100   -2.8510 ca        1 3O0     -0.116500
     22 OAW         9.0400    0.5970   -3.4700 o         1 3O0     -0.223500
     23 NAX         9.8040    1.0280   -2.6540 no        1 3O0      0.236300
     24 OAY         9.4140    1.6150   -1.6760 o         1 3O0     -0.223500
     25 HNAA        6.6590   -4.0690    3.3870 hn        1 3O0      0.445800
     26 HNAB        5.2500   -3.4300    2.6700 hn        1 3O0      0.445800
     27 HAC        12.7100   -2.5530   -1.9010 ha        1 3O0      0.157500
     28 HAD        12.6070    1.1120   -6.2280 ha        1 3O0      0.176500
     29 HAJ         4.5590    0.0840    0.8850 ha        1 3O0      0.162500
     30 HAK         2.4550    0.6820   -0.2520 ha        1 3O0      0.149000
     31 HAM        11.4830   -0.2420   -2.3860 h1        1 3O0      0.133200
     32 HAO        11.7980    1.5580   -2.1080 h1        1 3O0      0.133200
     33 HNAS        7.8450    0.6140   -0.6460 hn        1 3O0      0.476800
     34 HAU         6.7580    0.9260   -2.7900 ha        1 3O0      0.162500
     35 HAV         4.6310    1.5310   -3.9040 ha        1 3O0      0.149000
     36 NAA         6.2320   -3.3970    2.8020 nh        1 3O0     -0.917800
@<TRIPOS>BOND
     1    1   11 1
     2    2   12 3
     3    2   28 1
     4    3    4 3
     5    3   27 1
     6    4   14 1
     7    5    6 2
     8    5   15 2
     9    6    7 1
    10    6   16 1
    11    7    8 2
    12    7   36 1
    13    8   17 1
    14    9   10 ar
    15    9   19 ar
    16    9   29 1
    17   10   11 ar
    18   10   30 1
    19   11   21 ar
    20   12   13 1
    21   13   23 1
    22   13   31 1
    23   13   32 1
    24   14   16 3
    25   16   17 2
    26   17   18 1
    27   18   19 1
    28   18   33 1
    29   19   20 ar
    30   20   21 ar
    31   20   34 1
    32   21   35 1
    33   22   23 1
    34   23   24 1
    35   25   36 1
    36   26   36 1
@<TRIPOS>SUBSTRUCTURE
     1 3O0         1 TEMP              0 ****  ****    0 ROOT
