@<TRIPOS>MOLECULE
molecule
   48    48     1     0     0
SMALL
bcc


@<TRIPOS>ATOM
      1 CAA          0.0000     0.0000     0.0000 c3         1 3O1      -0.105433
      2 CAV          1.5300     0.0000     0.0000 c3         1 3O1       0.177800
      3 CAB          2.0400     0.0000     1.4430 c3         1 3O1      -0.105433
      4 CAC          2.0400    -1.2480    -0.7220 c3         1 3O1      -0.105433
      5 OAR          2.0130     1.1870    -0.6850 os         1 3O1      -0.436900
      6 CAS          1.6520     2.3770    -0.1720 c          1 3O1       0.756100
      7 OAE          0.9500     2.4250     0.8190 o          1 3O1      -0.610000
      8 NAP          2.0660     3.5180    -0.7590 ns         1 3O1      -0.583900
      9 CAN          1.6720     4.8140    -0.2020 c3         1 3O1       0.138000
     10 CAL          2.2720     5.9380    -1.0510 c3         1 3O1      -0.101400
     11 CAM          1.8600     7.2910    -0.4690 c3         1 3O1      -0.077400
     12 CAO          2.4590     8.4140    -1.3170 c3         1 3O1       0.126400
     13 OAQ          2.0760     9.6790    -0.7740 os         1 3O1      -0.295900
     14 CAT          2.5280    10.7890    -1.4140 ca         1 3O1       0.246100
     15 CAH          3.3200    10.6640    -2.5460 ca         1 3O1      -0.197000
     16 CAJ          3.7790    11.7940    -3.1950 ca         1 3O1       0.009000
     17 CAU          3.4490    13.0480    -2.7180 ca         1 3O1      -0.387500
     18 SAW          4.0350    14.4870    -3.5480 sy         1 3O1       1.228200
     19 OAF          4.0310    15.5350    -2.5880 o          1 3O1      -0.522300
     20 OAG          5.1980    14.0930    -4.2620 o          1 3O1      -0.522300
     21 NAD          2.9030    14.8920    -4.6880 nz         1 3O1      -0.805500
     22 CAK          2.6590    13.1760    -1.5910 ca         1 3O1       0.009000
     23 CAI          2.1930    12.0490    -0.9410 ca         1 3O1      -0.197000
     24 H1          -0.3610     0.4160    -0.9330 hc         1 3O1       0.051256
     25 H2          -0.3610     0.6000     0.8260 hc         1 3O1       0.051256
     26 H3          -0.3610    -1.0160     0.1060 hc         1 3O1       0.051256
     27 H4           3.0400     0.4160     1.4730 hc         1 3O1       0.051256
     28 H5           1.3810     0.6000     2.0590 hc         1 3O1       0.051256
     29 H6           2.0600    -1.0160     1.8190 hc         1 3O1       0.051256
     30 H7           1.6800    -2.1330    -0.2110 hc         1 3O1       0.051256
     31 H8           1.6790    -1.2480    -1.7430 hc         1 3O1       0.051256
     32 H9           3.1240    -1.2480    -0.7220 hc         1 3O1       0.051256
     33 H10          2.6430     3.4790    -1.5760 hn         1 3O1       0.320500
     34 H11          0.5920     4.8960    -0.2060 h1         1 3O1       0.058700
     35 H12          2.0360     4.8960     0.8150 h1         1 3O1       0.058700
     36 H13          3.3520     5.8560    -1.0460 hc         1 3O1       0.050200
     37 H14          2.2240     7.3730     0.5480 hc         1 3O1       0.069200
     38 H15          2.0950     8.3330    -2.3340 h1         1 3O1       0.046200
     39 H16          3.5400     8.3330    -1.3130 h1         1 3O1       0.046200
     40 H17          3.5790     9.6800    -2.9200 ha         1 3O1       0.173500
     41 H18          4.3970    11.6970    -4.0790 ha         1 3O1       0.157000
     42 H19          2.7920    14.1340    -5.3320 hn         1 3O1       0.490800
     43 H20          2.0280    15.0780    -4.2380 hn         1 3O1       0.490800
     44 H21          2.4000    14.1600    -1.2200 ha         1 3O1       0.157000
     45 H22          1.5740    12.1490    -0.0580 ha         1 3O1       0.173500
     46 H23          1.9080     5.8560    -2.0680 hc         1 3O1       0.050200
     47 H24          0.7800     7.3730    -0.4740 hc         1 3O1       0.069200
     48 HAD3         3.2070    15.7040    -5.1860 hn         1 3O1       0.490800
@<TRIPOS>BOND
     1     1     2 1   
     2     3     2 1   
     3    11    12 1   
     4    11    10 1   
     5    13    12 1   
     6    13    14 1   
     7     2     4 1   
     8     2     5 1   
     9     9    10 1   
    10     9     8 1   
    11     7     6 2   
    12     6     5 1   
    13     6     8 1   
    14    14    23 ar  
    15    14    15 ar  
    16    23    22 ar  
    17    15    16 ar  
    18    22    17 ar  
    19    16    17 ar  
    20    17    18 1   
    21    21    18 1   
    22    18    20 2   
    23    18    19 2   
    24     1    24 1   
    25     1    25 1   
    26     1    26 1   
    27     3    27 1   
    28     3    28 1   
    29     3    29 1   
    30     4    30 1   
    31     4    31 1   
    32     4    32 1   
    33     8    33 1   
    34     9    34 1   
    35     9    35 1   
    36    10    36 1   
    37    11    37 1   
    38    12    38 1   
    39    12    39 1   
    40    15    40 1   
    41    16    41 1   
    42    21    42 1   
    43    21    43 1   
    44    22    44 1   
    45    23    45 1   
    46    10    46 1   
    47    11    47 1   
    48    48    21 1   
@<TRIPOS>SUBSTRUCTURE
     1 3O1         1 TEMP              0 ****  ****    0 ROOT
