@<TRIPOS>MOLECULE
molecule
   74    77     1     0     0
SMALL
bcc


@<TRIPOS>ATOM
      1 C1           0.0000     0.0000     0.0000 c3         1 3O2      -0.246200
      2 F1         -16.6160     0.9840    -6.0920 f          1 3O2      -0.203633
      3 N1           1.5290    -1.1880     2.1420 n3         1 3O2      -0.719600
      4 O1           2.3860    -3.6890     3.3240 os         1 3O2      -0.413600
      5 S1          -0.6060    -0.0720    -1.7080 sy         1 3O2       1.208300
      6 C2           0.0610    -1.1860     2.1960 c3         1 3O2       0.161800
      7 F2         -16.7890     3.2600    -6.1850 f          1 3O2      -0.203633
      8 O2          -0.2420     1.1040    -2.4180 o          1 3O2      -0.618300
      9 C3           2.0360     0.0000     1.4450 c3         1 3O2       0.161800
     10 F3         -18.6710     1.9680    -6.2610 f          1 3O2      -0.203633
     11 N3         -10.6220     2.7940    -0.9730 na         1 3O2       0.302900
     12 O3          -0.3810    -1.3610    -2.2620 o          1 3O2      -0.618300
     13 C4           1.5310     0.0000     0.0000 c3         1 3O2      -0.045400
     14 N4         -11.2700     2.7990     0.1400 nc         1 3O2      -0.198800
     15 O4          -6.4610     0.2910    -1.2070 os         1 3O2      -0.320900
     16 C5          -0.5030    -1.2210     0.7740 c3         1 3O2      -0.045400
     17 N5         -12.5310     2.6930    -0.1090 nd         1 3O2      -0.384000
     18 C6          -0.5030     1.2580     0.6590 c          1 3O2       0.682100
     19 N6         -11.4560     2.6910    -1.9510 nc         1 3O2      -0.572800
     20 O6          -0.8380     3.6290     0.6520 oh         1 3O2      -0.361100
     21 C7           2.1060    -1.2950     3.4890 c3         1 3O2       0.167800
     22 O7         -17.4810     2.1390    -4.2890 os         1 3O2      -0.338900
     23 C8           1.7560    -2.6580     4.0870 c3         1 3O2       0.138400
     24 C9           2.1220    -5.0100     3.8020 c3         1 3O2       0.127700
     25 C10         -2.3590     0.0360    -1.5580 ca         1 3O2      -0.335500
     26 C11         -5.1090     0.2070    -1.3230 ca         1 3O2       0.197100
     27 C12         -2.9770     1.2730    -1.5750 ca         1 3O2       0.015000
     28 C13         -3.1130    -1.1150    -1.4280 ca         1 3O2       0.015000
     29 C14         -4.4870    -1.0320    -1.3110 ca         1 3O2      -0.209000
     30 C15         -4.3510     1.3610    -1.4570 ca         1 3O2      -0.209000
     31 C16         -7.0340     1.6000    -1.2260 c3         1 3O2       0.140400
     32 C17         -8.5540     1.4940    -1.0860 c3         1 3O2      -0.108400
     33 C18         -9.1670     2.8950    -1.1070 c3         1 3O2       0.079300
     34 C19        -12.6690     2.6210    -1.4400 cd         1 3O2       0.574500
     35 C20        -13.9420     2.4940    -2.1940 ca         1 3O2      -0.134500
     36 C21        -16.3160     2.2560    -3.6000 ca         1 3O2       0.138100
     37 C22        -13.9250     2.4320    -3.5860 ca         1 3O2      -0.060000
     38 C23        -15.1550     2.4300    -1.5100 ca         1 3O2      -0.060000
     39 C24        -16.3350     2.3120    -2.2130 ca         1 3O2      -0.176000
     40 C25        -15.1090     2.3140    -4.2840 ca         1 3O2      -0.176000
     41 C26        -17.3890     2.0880    -5.7150 c3         1 3O2       0.795700
     42 H2          -0.2800    -2.0590     2.7400 h1         1 3O2       0.051450
     43 H2A         -0.2790    -0.2870     2.6960 h1         1 3O2       0.051450
     44 HN2          0.2940     2.5200    -0.7320 hn         1 3O2       0.346500
     45 H3           1.6840     0.8910     1.9490 h1         1 3O2       0.051450
     46 H3A          3.1200    -0.0170     1.4470 h1         1 3O2       0.051450
     47 H4           1.8920     0.8860    -0.5080 hc         1 3O2       0.067450
     48 H4A          1.8920    -0.8860    -0.5080 hc         1 3O2       0.067450
     49 H5          -0.1700    -2.1250     0.2770 hc         1 3O2       0.067450
     50 H5A         -1.5850    -1.2020     0.8150 hc         1 3O2       0.067450
     51 HO6         -0.2620     4.3580     0.4920 ho         1 3O2       0.402000
     52 H7           3.1830    -1.1920     3.4300 h1         1 3O2       0.045200
     53 H7A          1.7020    -0.5100     4.1180 h1         1 3O2       0.045200
     54 H8           2.1050    -2.7030     5.1120 h1         1 3O2       0.025200
     55 H8A          0.6820    -2.7970     4.0650 h1         1 3O2       0.025200
     56 H9           2.6070    -5.1510     4.7600 h1         1 3O2       0.028367
     57 H9A          1.0540    -5.1460     3.9150 h1         1 3O2       0.028367
     58 H9B          2.5060    -5.7340     3.0930 h1         1 3O2       0.028367
     59 H12         -2.3840     2.1740    -1.6800 ha         1 3O2       0.156000
     60 H13         -2.6260    -2.0830    -1.4190 ha         1 3O2       0.156000
     61 H14         -5.0770    -1.9350    -1.2090 ha         1 3O2       0.146500
     62 H15         -4.8360     2.3290    -1.4710 ha         1 3O2       0.146500
     63 H16         -6.7910     2.0880    -2.1630 h1         1 3O2       0.042700
     64 H16A        -6.6350     2.1810    -0.4030 h1         1 3O2       0.042700
     65 H17         -8.7970     1.0080    -0.1490 hc         1 3O2       0.079200
     66 H17A        -8.9520     0.9130    -1.9090 hc         1 3O2       0.079200
     67 H18         -8.7680     3.4770    -0.2840 h1         1 3O2       0.083700
     68 H18A        -8.9240     3.3820    -2.0440 h1         1 3O2       0.083700
     69 H22        -12.9830     2.4770    -4.1190 ha         1 3O2       0.158000
     70 H23        -15.1700     2.4730    -0.4270 ha         1 3O2       0.158000
     71 H24        -17.2780     2.2620    -1.6820 ha         1 3O2       0.154000
     72 H25        -15.0970     2.2660    -5.3660 ha         1 3O2       0.154000
     73 N2          -0.2850     2.4560     0.0820 ns         1 3O2      -0.473400
     74 O5          -1.1050     1.1930     1.7110 o          1 3O2      -0.559100
@<TRIPOS>BOND
     1    18     1 1
     2    16     1 1
     3     1     5 1
     4     1    13 1
     5     2    41 1
     6     6     3 1
     7    21     3 1
     8     3     9 1
     9    24     4 1
    10    23     4 1
    11    25     5 1
    12     5    12 2
    13     5     8 2
    14     6    16 1
    15     6    42 1
    16     6    43 1
    17     7    41 1
    18    20    73 1
    19    18    73 1
    20    73    44 1
    21     9    13 1
    22     9    45 1
    23     9    46 1
    24    41    10 1
    25    19    11 1
    26    11    33 1
    27    11    14 1
    28    13    47 1
    29    13    48 1
    30    17    14 2
    31    31    15 1
    32    15    26 1
    33    16    49 1
    34    16    50 1
    35    34    17 1
    36    74    18 2
    37    19    34 2
    38    20    51 1
    39    21    23 1
    40    21    52 1
    41    21    53 1
    42    41    22 1
    43    22    36 1
    44    23    54 1
    45    23    55 1
    46    24    56 1
    47    24    57 1
    48    24    58 1
    49    28    25 ar
    50    27    25 ar
    51    26    29 ar
    52    26    30 ar
    53    30    27 ar
    54    27    59 1
    55    29    28 ar
    56    28    60 1
    57    29    61 1
    58    30    62 1
    59    32    31 1
    60    31    63 1
    61    31    64 1
    62    33    32 1
    63    32    65 1
    64    32    66 1
    65    33    67 1
    66    33    68 1
    67    35    34 1
    68    37    35 ar
    69    35    38 ar
    70    40    36 ar
    71    36    39 ar
    72    40    37 ar
    73    37    69 1
    74    39    38 ar
    75    38    70 1
    76    39    71 1
    77    40    72 1
@<TRIPOS>SUBSTRUCTURE
     1 3O2         1 TEMP              0 ****  ****    0 ROOT
