@<TRIPOS>MOLECULE
3O4
   52    55     1     0     0
SMALL
bcc


@<TRIPOS>ATOM
      1 O23          0.0000     0.0000     0.0000 o          1 3O4      -0.628100
      2 C22          1.2130     0.0000     0.0000 c          1 3O4       0.558100
      3 N24          1.8860     0.0000     1.1680 ns         1 3O4      -0.042100
      4 C25          1.1900     0.1070     2.3750 ca         1 3O4      -0.072400
      5 C26          1.6500    -0.5630     3.5030 ca         1 3O4      -0.127500
      6 C19          1.9680    -0.0070    -1.3040 c3         1 3O4      -0.069100
      7 C17         -0.6430     0.9980     3.6380 ca         1 3O4      -0.051000
      8 C16         -0.1880     0.3210     4.7690 cp         1 3O4      -0.183500
      9 C12         -0.9260     0.4350     6.0490 cp         1 3O4       0.533800
     10 C11         -0.4770    -0.2390     7.1890 ca         1 3O4      -0.417600
     11 C10         -1.1970    -0.1020     8.3620 ca         1 3O4       0.490200
     12 N15         -2.2830     0.6570     8.3700 nb         1 3O4      -0.694000
     13 C14         -2.6850     1.2850     7.2750 ca         1 3O4       0.707900
     14 N13         -2.0220     1.1860     6.1340 nb         1 3O4      -0.688000
     15 N7          -3.8250     2.0690     7.3270 nu         1 3O4      -0.285300
     16 C1          -4.6020     2.0990     8.4930 ca         1 3O4      -0.023400
     17 C2          -5.2570     3.2670     8.8600 ca         1 3O4      -0.093500
     18 C3          -6.0220     3.2970    10.0080 ca         1 3O4      -0.126500
     19 C4          -6.1380     2.1590    10.7960 ca         1 3O4       0.004600
     20 C5          -5.4830     0.9900    10.4280 ca         1 3O4      -0.126500
     21 C6          -4.7210     0.9600     9.2770 ca         1 3O4      -0.093500
     22 C90          0.0440     0.8890     2.4480 ca         1 3O4      -0.127500
     23 N8          -6.9130     2.1900    11.9610 nh         1 3O4      -0.358000
     24 C13          0.9660    -0.4590     4.6950 ca         1 3O4      -0.051000
     25 C9          -8.2920     2.6070    11.6650 c3         1 3O4       0.094300
     26 C31         -9.0870     2.6840    12.9710 c3         1 3O4       0.212900
     27 O30         -9.0340     1.4160    13.6310 os         1 3O4      -0.411600
     28 C29         -7.7070     0.9800    13.9340 c3         1 3O4       0.212900
     29 C28         -6.8980     0.8850    12.6390 c3         1 3O4       0.094300
     30 H24          2.8850    -0.0530     1.1700 hn         1 3O4       0.167500
     31 H191         2.4350    -0.9740    -1.4460 hc         1 3O4       0.024367
     32 H192         2.7300     0.7630    -1.2840 hc         1 3O4       0.024367
     33 H193         1.2810     0.1860    -2.1200 hc         1 3O4       0.024367
     34 H26          2.5470    -1.1690     3.4440 ha         1 3O4       0.123000
     35 H90         -0.3100     1.4150     1.5690 ha         1 3O4       0.123000
     36 H13          1.3240    -0.9830     5.5730 ha         1 3O4       0.117500
     37 H17         -1.5370     1.6070     3.6940 ha         1 3O4       0.117500
     38 H11          0.4150    -0.8530     7.1550 ha         1 3O4       0.131000
     39 H10         -0.8780    -0.6110     9.2630 h4         1 3O4      -0.018900
     40 H2          -5.1670     4.1550     8.2450 ha         1 3O4       0.119500
     41 H6          -4.2100     0.0490     8.9890 ha         1 3O4       0.119500
     42 H3          -6.5330     4.2080    10.2950 ha         1 3O4       0.117000
     43 H5          -5.5740     0.1020    11.0410 ha         1 3O4       0.117000
     44 H281        -5.8750     0.6110    12.8710 h1         1 3O4       0.026200
     45 H282        -7.3400     0.1370    11.9920 h1         1 3O4       0.026200
     46 H91C        -8.7530     1.8840    11.0040 h1         1 3O4       0.026200
     47 H92C        -8.2800     3.5820    11.1920 h1         1 3O4       0.026200
     48 H291        -7.7460     0.0060    14.4070 h1         1 3O4       0.013200
     49 H292        -7.2370     1.6930    14.6010 h1         1 3O4       0.013200
     50 H311       -10.1180     2.9320    12.7500 h1         1 3O4       0.013200
     51 H312        -8.6550     3.4420    13.6120 h1         1 3O4       0.013200
     52 H7          -4.1060     2.5970     6.5250 hn         1 3O4       0.292800
@<TRIPOS>BOND
     1     1     2 2   
     2     2     3 1   
     3     2     6 1   
     4     3     4 1   
     5     3    30 1   
     6     4     5 ar  
     7     4    22 ar  
     8     5    24 ar  
     9     5    34 1   
    10     6    31 1   
    11     6    32 1   
    12     6    33 1   
    13     7     8 ar  
    14     7    22 ar  
    15     7    37 1   
    16     8     9 1   
    17     8    24 ar  
    18     9    10 ar  
    19     9    14 ar  
    20    10    11 ar  
    21    10    38 1   
    22    11    12 ar  
    23    11    39 1   
    24    12    13 ar  
    25    13    14 ar  
    26    13    15 1   
    27    15    16 1   
    28    15    52 1   
    29    16    17 ar  
    30    16    21 ar  
    31    17    18 ar  
    32    17    40 1   
    33    18    19 ar  
    34    18    42 1   
    35    19    20 ar  
    36    19    23 1   
    37    20    21 ar  
    38    20    43 1   
    39    21    41 1   
    40    22    35 1   
    41    23    25 1   
    42    23    29 1   
    43    24    36 1   
    44    25    26 1   
    45    25    46 1   
    46    25    47 1   
    47    26    27 1   
    48    26    50 1   
    49    26    51 1   
    50    27    28 1   
    51    28    29 1   
    52    28    48 1   
    53    28    49 1   
    54    29    44 1   
    55    29    45 1   
@<TRIPOS>SUBSTRUCTURE
     1 3O4         1 TEMP              0 ****  ****    0 ROOT
