@<TRIPOS>MOLECULE
molecule
   34    34     1     0     0
SMALL
bcc


@<TRIPOS>ATOM
      1 CAE          0.0000     0.0000     0.0000 ca         1 3O5      -0.193000
      2 CAG          1.3820     0.0000     0.0000 ca         1 3O5       0.015500
      3 CAO          2.0740     0.0000     1.1980 ca         1 3O5      -0.381500
      4 SAP          3.8360     0.0010     1.1940 sy         1 3O5       1.236200
      5 OAC          4.2390    -0.5430     2.4440 o          1 3O5      -0.511800
      6 OAD          4.2360    -0.5440    -0.0550 o          1 3O5      -0.511800
      7 NAA          4.3250     1.5830     1.1930 nz         1 3O5      -0.807500
      8 CAH          1.3850     0.0010     2.3960 ca         1 3O5       0.015500
      9 CAF          0.0040    -0.0000     2.4020 ca         1 3O5      -0.193000
     10 CAN         -0.6930     0.0050     1.2020 ca         1 3O5       0.230100
     11 OAM         -2.0520     0.0040     1.2040 os         1 3O5      -0.301900
     12 CAL         -2.7030     0.0100    -0.0680 c3         1 3O5       0.138400
     13 CAK         -4.2180     0.0080     0.1340 c3         1 3O5      -0.077400
     14 CAJ         -4.9160     0.0140    -1.2270 c3         1 3O5      -0.111400
     15 CAI         -6.4320     0.0130    -1.0240 c3         1 3O5       0.096800
     16 NAB         -7.1010     0.0190    -2.3320 nz         1 3O5      -0.810600
     17 H1          -0.5420     0.0020    -0.9380 ha         1 3O5       0.169000
     18 H2           1.9230    -0.0040    -0.9380 ha         1 3O5       0.165000
     19 H3           5.3250     1.6230     1.1920 hn         1 3O5       0.493467
     20 H4           3.9740     2.0410     2.0110 hn         1 3O5       0.493467
     21 H5           1.9300    -0.0010     3.3330 ha         1 3O5       0.165000
     22 H6          -0.5340     0.0020     3.3420 ha         1 3O5       0.169000
     23 H7          -2.4120    -0.8710    -0.6270 h1         1 3O5       0.050200
     24 H8          -2.4130     0.8980    -0.6170 h1         1 3O5       0.050200
     25 H9          -4.5100     0.8890     0.6930 hc         1 3O5       0.079700
     26 H10         -4.5080    -0.8790     0.6840 hc         1 3O5       0.079700
     27 H11         -4.6260     0.9020    -1.7770 hc         1 3O5       0.068200
     28 H12         -6.7220    -0.8740    -0.4740 hx         1 3O5       0.119200
     29 H13         -6.8330     0.8380    -2.8400 hn         1 3O5       0.462467
     30 H14         -8.0930     0.0170    -2.2000 hn         1 3O5       0.462467
     31 H15         -4.6250    -0.8670    -1.7860 hc         1 3O5       0.068200
     32 H16         -6.7230     0.8950    -0.4660 hx         1 3O5       0.119200
     33 HAA3         3.9670     2.0420     0.3790 hn         1 3O5       0.493467
     34 HAB3        -6.8270    -0.7930    -2.8500 hn         1 3O5       0.462467
@<TRIPOS>BOND
     1    13    12 1
     2    13    14 1
     3    12    11 1
     4    15    14 1
     5    15    16 1
     6    11    10 1
     7    10     9 ar
     8    10     1 ar
     9     9     8 ar
    10     1     2 ar
    11     8     3 ar
    12     2     3 ar
    13     3     4 1
    14     7     4 1
    15     6     4 2
    16     4     5 2
    17     1    17 1
    18     2    18 1
    19     7    19 1
    20     7    20 1
    21     8    21 1
    22     9    22 1
    23    12    23 1
    24    12    24 1
    25    13    25 1
    26    13    26 1
    27    14    27 1
    28    15    28 1
    29    16    29 1
    30    16    30 1
    31    14    31 1
    32    15    32 1
    33    33     7 1
    34    34    16 1
@<TRIPOS>SUBSTRUCTURE
     1 3O5         1 TEMP              0 ****  ****    0 ROOT
