@<TRIPOS>MOLECULE
3O5
   34    34     1     0     0
SMALL
bcc


@<TRIPOS>ATOM
      1 CAE          0.0000     0.0000     0.0000 ca         1 3O5      -0.184500
      2 CAG          1.3820     0.0000     0.0000 ca         1 3O5       0.063000
      3 CAO          2.0740     0.0000     1.1980 ca         1 3O5      -0.270500
      4 SAP          3.8360     0.0010     1.1940 sy         1 3O5       0.944200
      5 OAC          4.2390    -0.5430     2.4440 o          1 3O5      -0.490300
      6 OAD          4.2360    -0.5440    -0.0550 o          1 3O5      -0.490300
      7 NAA          4.3250     1.5830     1.1930 nz         1 3O5      -0.129500
      8 CAH          1.3850     0.0010     2.3960 ca         1 3O5       0.063000
      9 CAF          0.0040    -0.0000     2.4020 ca         1 3O5      -0.184500
     10 CAN         -0.6930     0.0050     1.2020 ca         1 3O5       0.242100
     11 OAM         -2.0520     0.0040     1.2040 os         1 3O5      -0.284900
     12 CAL         -2.7030     0.0100    -0.0680 c3         1 3O5       0.210400
     13 CAK         -4.2180     0.0080     0.1340 c3         1 3O5      -0.024400
     14 CAJ         -4.9160     0.0140    -1.2270 c3         1 3O5      -0.030400
     15 CAI         -6.4320     0.0130    -1.0240 c3         1 3O5      -0.048200
     16 NAB         -7.1010     0.0190    -2.3320 nz         1 3O5       0.089400
     17 H1          -0.5420     0.0020    -0.9380 ha         1 3O5       0.141500
     18 H2           1.9230    -0.0040    -0.9380 ha         1 3O5       0.130000
     19 H3           5.3250     1.6230     1.1920 hn         1 3O5       0.314467
     20 H4           3.9740     2.0410     2.0110 hn         1 3O5       0.314467
     21 H5           1.9300    -0.0010     3.3330 ha         1 3O5       0.130000
     22 H6          -0.5340     0.0020     3.3420 ha         1 3O5       0.141500
     23 H7          -2.4120    -0.8710    -0.6270 h1         1 3O5       0.010200
     24 H8          -2.4130     0.8980    -0.6170 h1         1 3O5       0.010200
     25 H9          -4.5100     0.8890     0.6930 hc         1 3O5       0.043200
     26 H10         -4.5080    -0.8790     0.6840 hc         1 3O5       0.043200
     27 H11         -4.6260     0.9020    -1.7770 hc         1 3O5       0.034200
     28 H12         -6.7220    -0.8740    -0.4740 hx         1 3O5       0.090200
     29 H13         -6.8330     0.8380    -2.8400 hn         1 3O5       0.227133
     30 H14         -8.0930     0.0170    -2.2000 hn         1 3O5       0.227133
     31 H15         -4.6250    -0.8670    -1.7860 hc         1 3O5       0.034200
     32 H16         -6.7230     0.8950    -0.4660 hx         1 3O5       0.090200
     33 HAA3         3.9670     2.0420     0.3790 hn         1 3O5       0.314467
     34 HAB3        -6.8270    -0.7930    -2.8500 hn         1 3O5       0.227133
@<TRIPOS>BOND
     1     1     2 ar  
     2     1    10 ar  
     3     1    17 1   
     4     2     3 ar  
     5     2    18 1   
     6     3     4 1   
     7     3     8 ar  
     8     4     5 2   
     9     4     6 2   
    10     4     7 1   
    11     7    19 1   
    12     7    20 1   
    13     7    33 1   
    14     8     9 ar  
    15     8    21 1   
    16     9    10 ar  
    17     9    22 1   
    18    10    11 1   
    19    11    12 1   
    20    12    13 1   
    21    12    23 1   
    22    12    24 1   
    23    13    14 1   
    24    13    25 1   
    25    13    26 1   
    26    14    15 1   
    27    14    27 1   
    28    14    31 1   
    29    15    16 1   
    30    15    28 1   
    31    15    32 1   
    32    16    29 1   
    33    16    30 1   
    34    16    34 1   
@<TRIPOS>SUBSTRUCTURE
     1 3O5         1 TEMP              0 ****  ****    0 ROOT
