@<TRIPOS>MOLECULE
3O6
   41    43     1     0     0
SMALL
bcc


@<TRIPOS>ATOM
      1 C13          0.0000     0.0000     0.0000 cc         1 3O6      -0.218700
      2 C15         -0.4090    -0.5680    -2.2670 c          1 3O6       0.540100
      3 C20         -0.6690    -1.2750    -6.9380 ca         1 3O6      -0.112500
      4 C21         -0.0510    -2.5100    -6.8390 ca         1 3O6       0.096900
      5 C24         -0.1650    -2.3850    -4.4500 ca         1 3O6      -0.089500
      6 C01          2.2100     0.0000    -1.1880 c3         1 3O6      -0.009400
      7 N02          1.3520     0.0000     0.0000 na         1 3O6       0.552400
      8 N03          1.7910     0.0000     1.3290 nc         1 3O6      -0.586800
      9 C04          0.7510     0.0010     2.1190 cd         1 3O6       0.274600
     10 C05         -0.4090     0.0010     1.3210 cd         1 3O6      -0.249300
     11 C06         -1.8110     0.0030     1.8080 ca         1 3O6      -0.014000
     12 C07         -2.3050    -1.0900     2.5170 ca         1 3O6      -0.071000
     13 C08         -3.6100    -1.0840     2.9680 ca         1 3O6      -0.129000
     14 C09         -4.4270     0.0060     2.7160 ca         1 3O6       0.105900
     15 F10         -5.7030     0.0080     3.1580 f          1 3O6      -0.127900
     16 C11         -3.9400     1.0940     2.0100 ca         1 3O6      -0.129000
     17 C12         -2.6350     1.0980     1.5600 ca         1 3O6      -0.071000
     18 N14         -0.8260     0.0050    -1.1200 ns         1 3O6      -0.007100
     19 O16          0.6360    -1.1880    -2.2910 o          1 3O6      -0.698100
     20 N17         -1.1530    -0.4550    -3.3850 ns         1 3O6      -0.035100
     21 C18         -0.7800    -1.1450    -4.5460 ca         1 3O6      -0.099400
     22 C19         -1.0310    -0.5910    -5.7940 ca         1 3O6      -0.089500
     23 C23          0.2010    -3.0650    -5.5960 ca         1 3O6      -0.112500
     24 C25          0.7860     0.0000     3.6250 c3         1 3O6       0.576600
     25 F26          0.2400    -1.1950     4.1040 f          1 3O6      -0.204300
     26 F27          2.1110     0.1140     4.0600 f          1 3O6      -0.204300
     27 F28          0.0420     1.0800     4.1100 f          1 3O6      -0.204300
     28 H1          -0.8650    -0.8440    -7.9120 ha         1 3O6       0.122000
     29 H2           0.0310    -2.8190    -3.4760 ha         1 3O6       0.126500
     30 H3           3.1720     0.4320    -0.9380 h1         1 3O6       0.044033
     31 H4           1.7440     0.5860    -1.9700 h1         1 3O6       0.044033
     32 H5           2.3500    -1.0170    -1.5320 h1         1 3O6       0.044033
     33 H6          -1.6660    -1.9420     2.7150 ha         1 3O6       0.115000
     34 H7          -3.9950    -1.9330     3.5200 ha         1 3O6       0.120500
     35 H8          -4.5820     1.9450     1.8170 ha         1 3O6       0.120500
     36 H9          -2.2550     1.9500     1.0080 ha         1 3O6       0.115000
     37 H10         -1.7150     0.4630    -1.0830 hn         1 3O6       0.178500
     38 H11         -1.9920     0.0900    -3.3750 hn         1 3O6       0.164500
     39 H12         -1.5130     0.3760    -5.8710 ha         1 3O6       0.126500
     40 H13          0.6830    -4.0320    -5.5210 ha         1 3O6       0.122000
     41 F22          0.3080    -3.1770    -7.9590 f          1 3O6      -0.127900
@<TRIPOS>BOND
     1     1     7 1   
     2     1    10 2   
     3     1    18 1   
     4     2    18 1   
     5     2    19 2   
     6     2    20 1   
     7     3     4 ar  
     8     3    22 ar  
     9     3    28 1   
    10     4    23 ar  
    11     4    41 1   
    12     5    21 ar  
    13     5    23 ar  
    14     5    29 1   
    15     6     7 1   
    16     6    30 1   
    17     6    31 1   
    18     6    32 1   
    19     7     8 1   
    20     8     9 2   
    21     9    10 1   
    22     9    24 1   
    23    10    11 1   
    24    11    12 ar  
    25    11    17 ar  
    26    12    13 ar  
    27    12    33 1   
    28    13    14 ar  
    29    13    34 1   
    30    14    15 1   
    31    14    16 ar  
    32    16    17 ar  
    33    16    35 1   
    34    17    36 1   
    35    18    37 1   
    36    20    21 1   
    37    20    38 1   
    38    21    22 ar  
    39    22    39 1   
    40    23    40 1   
    41    24    25 1   
    42    24    26 1   
    43    24    27 1   
@<TRIPOS>SUBSTRUCTURE
     1 3O6         1 TEMP              0 ****  ****    0 ROOT
