@<TRIPOS>MOLECULE
molecule
   41    43     1     0     0
SMALL
bcc


@<TRIPOS>ATOM
      1 C13          0.0000     0.0000     0.0000 cc         1 3O6       0.098300
      2 C15         -0.4090    -0.5680    -2.2670 c          1 3O6       0.777100
      3 C20         -0.6690    -1.2750    -6.9380 ca         1 3O6      -0.149500
      4 C21         -0.0510    -2.5100    -6.8390 ca         1 3O6       0.121900
      5 C24         -0.1650    -2.3850    -4.4500 ca         1 3O6      -0.118500
      6 C01          2.2100     0.0000    -1.1880 c3         1 3O6       0.069600
      7 N02          1.3520     0.0000     0.0000 na         1 3O6       0.098400
      8 N03          1.7910     0.0000     1.3290 nc         1 3O6      -0.454800
      9 C04          0.7510     0.0010     2.1190 cd         1 3O6       0.275600
     10 C05         -0.4090     0.0010     1.3210 cd         1 3O6      -0.264300
     11 C06         -1.8110     0.0030     1.8080 ca         1 3O6      -0.025000
     12 C07         -2.3050    -1.0900     2.5170 ca         1 3O6      -0.093500
     13 C08         -3.6100    -1.0840     2.9680 ca         1 3O6      -0.167000
     14 C09         -4.4270     0.0060     2.7160 ca         1 3O6       0.134900
     15 F10         -5.7030     0.0080     3.1580 f          1 3O6      -0.139900
     16 C11         -3.9400     1.0940     2.0100 ca         1 3O6      -0.167000
     17 C12         -2.6350     1.0980     1.5600 ca         1 3O6      -0.093500
     18 N14         -0.8260     0.0050    -1.1200 ns         1 3O6      -0.465100
     19 O16          0.6360    -1.1880    -2.2910 o          1 3O6      -0.640100
     20 N17         -1.1530    -0.4550    -3.3850 ns         1 3O6      -0.482100
     21 C18         -0.7800    -1.1450    -4.5460 ca         1 3O6       0.047600
     22 C19         -1.0310    -0.5910    -5.7940 ca         1 3O6      -0.118500
     23 C23          0.2010    -3.0650    -5.5960 ca         1 3O6      -0.149500
     24 C25          0.7860     0.0000     3.6250 c3         1 3O6       0.618600
     25 F26          0.2400    -1.1950     4.1040 f          1 3O6      -0.213300
     26 F27          2.1110     0.1140     4.0600 f          1 3O6      -0.213300
     27 F28          0.0420     1.0800     4.1100 f          1 3O6      -0.213300
     28 H1          -0.8650    -0.8440    -7.9120 ha         1 3O6       0.151500
     29 H2           0.0310    -2.8190    -3.4760 ha         1 3O6       0.153500
     30 H3           3.1720     0.4320    -0.9380 h1         1 3O6       0.069033
     31 H4           1.7440     0.5860    -1.9700 h1         1 3O6       0.069033
     32 H5           2.3500    -1.0170    -1.5320 h1         1 3O6       0.069033
     33 H6          -1.6660    -1.9420     2.7150 ha         1 3O6       0.143500
     34 H7          -3.9950    -1.9330     3.5200 ha         1 3O6       0.147000
     35 H8          -4.5820     1.9450     1.8170 ha         1 3O6       0.147000
     36 H9          -2.2550     1.9500     1.0080 ha         1 3O6       0.143500
     37 H10         -1.7150     0.4630    -1.0830 hn         1 3O6       0.343500
     38 H11         -1.9920     0.0900    -3.3750 hn         1 3O6       0.324500
     39 H12         -1.5130     0.3760    -5.8710 ha         1 3O6       0.153500
     40 H13          0.6830    -4.0320    -5.5210 ha         1 3O6       0.151500
     41 F22          0.3080    -3.1770    -7.9590 f          1 3O6      -0.138900
@<TRIPOS>BOND
     1     6     7 1
     2     7     8 1
     3     7     1 1
     4     8     9 2
     5    27    24 1
     6    18     1 1
     7    18     2 1
     8     1    10 2
     9     9    10 1
    10     9    24 1
    11    25    24 1
    12    10    11 1
    13    17    11 ar
    14    17    16 ar
    15    24    26 1
    16    20     2 1
    17    20    21 1
    18     5    21 ar
    19     5    23 ar
    20     2    19 2
    21    11    12 ar
    22    16    14 ar
    23    21    22 ar
    24    23     4 ar
    25    12    13 ar
    26    14    13 ar
    27    14    15 1
    28    22     3 ar
    29     4     3 ar
    30     4    41 1
    31     3    28 1
    32     5    29 1
    33     6    30 1
    34     6    31 1
    35     6    32 1
    36    12    33 1
    37    13    34 1
    38    16    35 1
    39    17    36 1
    40    18    37 1
    41    20    38 1
    42    22    39 1
    43    23    40 1
@<TRIPOS>SUBSTRUCTURE
     1 3O6         1 TEMP              0 ****  ****    0 ROOT
