@<TRIPOS>MOLECULE
3O7
   28    30     1     0     0
SMALL
bcc


@<TRIPOS>ATOM
      1 O2         -0.0080   -0.0670   -0.1250 oh        1 3O7     -0.468100
      2 CAY         1.3640   -0.0940   -0.0650 ca        1 3O7      0.133100
      3 CAI         2.0600    0.0890    1.1450 ca        1 3O7     -0.165000
      4 CBE         2.0620   -0.2860   -1.2700 ca        1 3O7     -0.128600
      5 CAJ         3.4450    0.0890    1.1510 ca        1 3O7     -0.165000
      6 CBA         1.3470   -0.4970   -2.5520 c         1 3O7      0.598300
      7 OAA         0.2610   -1.0720   -2.6280 o         1 3O7     -0.465100
      8 CBF         3.4670   -0.2850   -1.2630 ca        1 3O7     -0.128600
      9 CBC         2.0740    0.0180   -3.7370 ca        1 3O7     -0.128600
     10 CAZ         4.1520   -0.0930   -0.0510 ca        1 3O7      0.133100
     11 CBB         4.1950   -0.4960   -2.5370 c         1 3O7      0.598300
     12 OAB         5.2820   -1.0700   -2.6030 o         1 3O7     -0.465100
     13 CAW         1.3890    0.4980   -4.8660 ca        1 3O7      0.133100
     14 O1          5.5250   -0.0650   -0.0970 oh        1 3O7     -0.468100
     15 OAE         0.0160    0.5110   -4.8150 oh        1 3O7     -0.468100
     16 CAG         2.0960    0.9690   -5.9880 ca        1 3O7     -0.165000
     17 CAH         3.4810    0.9690   -5.9810 ca        1 3O7     -0.165000
     18 CAX         4.1760    0.4990   -4.8520 ca        1 3O7      0.133100
     19 OAF         5.5480    0.5130   -4.7860 oh        1 3O7     -0.468100
     20 CBD         3.4800    0.0190   -3.7300 ca        1 3O7     -0.128600
     21 H1         -0.3450   -0.0080    0.7810 ho        1 3O7      0.420000
     22 H2          1.5000    0.2310    2.0810 ha        1 3O7      0.142000
     23 H3          3.9940    0.2320    2.0940 ha        1 3O7      0.142000
     24 H6          5.8530   -0.0050    0.8120 ho        1 3O7      0.420000
     25 H7         -0.3130    0.7890   -5.6830 ho        1 3O7      0.420000
     26 H8          1.5450    1.3350   -6.8670 ha        1 3O7      0.142000
     27 H9          4.0390    1.3350   -6.8550 ha        1 3O7      0.142000
     28 H10         5.8860    0.7920   -5.6510 ho        1 3O7      0.420000
@<TRIPOS>BOND
     1    1    2 1   
     2    1   21 1   
     3    2    3 ar  
     4    2    4 ar  
     5    3    5 ar  
     6    3   22 1   
     7    4    6 1   
     8    4    8 ar  
     9    5   10 ar  
    10    5   23 1   
    11    6    7 2   
    12    6    9 1   
    13    8   10 ar  
    14    8   11 1   
    15    9   13 ar  
    16    9   20 ar  
    17   10   14 1   
    18   11   12 2   
    19   11   20 1   
    20   13   15 1   
    21   13   16 ar  
    22   14   24 1   
    23   15   25 1   
    24   16   17 ar  
    25   16   26 1   
    26   17   18 ar  
    27   17   27 1   
    28   18   19 1   
    29   18   20 ar  
    30   19   28 1   
@<TRIPOS>SUBSTRUCTURE
     1 3O7         1 TEMP              0 ****  ****    0 ROOT
