@<TRIPOS>MOLECULE
molecule
   28    30     1     0     0
SMALL
bcc


@<TRIPOS>ATOM
      1 O2           0.0000     0.0000     0.0000 oh         1 3O7      -0.483100
      2 CAY          1.3560     0.0000     0.0000 ca         1 3O7       0.143100
      3 CAI          2.0550     0.0000     1.2050 ca         1 3O7      -0.153500
      4 CBE          2.0560    -0.0050    -1.2080 ca         1 3O7      -0.134850
      5 CAJ          3.4320     0.0010     1.2160 ca         1 3O7      -0.153500
      6 CBA          1.3350    -0.0090    -2.4940 c          1 3O7       0.582800
      7 OAA          0.1450    -0.2570    -2.5320 o          1 3O7      -0.464100
      8 CBF          3.4660    -0.0050    -1.1970 ca         1 3O7      -0.134850
      9 CBC          2.0750     0.2910    -3.7340 ca         1 3O7      -0.134850
     10 CAZ          4.1490     0.0010     0.0200 ca         1 3O7       0.143100
     11 CBB          4.2060    -0.0100    -2.4730 c          1 3O7       0.582800
     12 OAB          5.3970    -0.2580    -2.4930 o          1 3O7      -0.464100
     13 CAW          1.3920     0.5760    -4.9170 ca         1 3O7       0.143100
     14 O1           5.5050     0.0010     0.0400 oh         1 3O7      -0.483100
     15 OAE          0.0360     0.5790    -4.9370 oh         1 3O7      -0.483100
     16 CAG          2.1080     0.8590    -6.0800 ca         1 3O7      -0.153500
     17 CAH          3.4850     0.8580    -6.0700 ca         1 3O7      -0.153500
     18 CAX          4.1840     0.5750    -4.8980 ca         1 3O7       0.143100
     19 OAF          5.5410     0.5770    -4.8970 oh         1 3O7      -0.483100
     20 CBD          3.4850     0.2910    -3.7240 ca         1 3O7      -0.134850
     21 H1          -0.3140     0.7440     0.4870 ho         1 3O7       0.423750
     22 H2           1.5110     0.0000     2.1420 ha         1 3O7       0.144500
     23 H3           3.9620     0.0010     2.1600 ha         1 3O7       0.144500
     24 H6           5.8120     0.7460     0.5310 ho         1 3O7       0.423750
     25 H7          -0.2700     0.0250    -5.6360 ho         1 3O7       0.423750
     26 H8           1.5780     1.0810    -6.9980 ha         1 3O7       0.144500
     27 H9           4.0290     1.0790    -6.9800 ha         1 3O7       0.144500
     28 H10          5.8560     0.0220    -5.5920 ho         1 3O7       0.423750
@<TRIPOS>BOND
     1    19    18 1
     2    12    11 2
     3    14    10 1
     4    18    17 ar
     5    18    20 ar
     6    11    20 1
     7    11     8 1
     8    17    16 ar
     9    20     9 ar
    10    10     8 ar
    11    10     5 ar
    12     8     4 ar
    13    16    13 ar
    14     5     3 ar
    15     9    13 ar
    16     9     6 1
    17    13    15 1
    18     4     6 1
    19     4     2 ar
    20     6     7 2
    21     3     2 ar
    22     2     1 1
    23     1    21 1
    24     3    22 1
    25     5    23 1
    26    14    24 1
    27    15    25 1
    28    16    26 1
    29    17    27 1
    30    19    28 1
@<TRIPOS>SUBSTRUCTURE
     1 3O7         1 TEMP              0 ****  ****    0 ROOT
