@<TRIPOS>MOLECULE
3O8
   45    47     1     0     0
SMALL
bcc


@<TRIPOS>ATOM
      1 OAC          0.0000     0.0000     0.0000 oh         1 3O8      -0.576800
      2 CAK          1.4290     0.0000     0.0000 c3         1 3O8       0.227400
      3 CAM          1.9400     0.0000     1.4420 c3         1 3O8       0.135800
      4 NAS          1.5520    -1.2550     2.0990 n7         1 3O8      -0.566200
      5 CAO          2.0260    -1.2890     3.4890 c3         1 3O8       0.133800
      6 CAQ          1.6030    -2.6090     4.1390 c3         1 3O8       0.159800
      7 NAU          2.0770    -2.6440     5.5250 nu         1 3O8      -0.436600
      8 CAY          1.8120    -3.7490     6.3210 ca         1 3O8       0.073600
      9 CAI          0.9840    -4.7700     5.8480 ca         1 3O8      -0.126000
     10 CBE          2.3780    -3.8480     7.5950 ca         1 3O8      -0.197600
     11 CAJ          0.7160    -5.8700     6.6290 ca         1 3O8      -0.123000
     12 CBA          3.2570    -2.7840     8.1090 c          1 3O8       0.670300
     13 OAA          3.7030    -1.9360     7.3600 o          1 3O8      -0.575100
     14 CBF          2.1020    -4.9760     8.3960 ca         1 3O8      -0.204600
     15 CBC          3.5900    -2.7590     9.5460 ca         1 3O8      -0.142600
     16 CAZ          1.2660    -5.9850     7.9080 ca         1 3O8       0.063600
     17 CBB          2.6970    -5.0800     9.7390 c          1 3O8       0.669300
     18 OAB          2.6800    -6.1380    10.3410 o          1 3O8      -0.574100
     19 CAW          4.1730    -1.6290    10.1200 ca         1 3O8       0.162100
     20 NAV          0.9910    -7.0990     8.6880 nv         1 3O8      -0.454200
     21 OAE          4.4400    -0.5390     9.3590 oh         1 3O8      -0.443100
     22 CAG          4.4810    -1.6230    11.4800 ca         1 3O8      -0.154000
     23 CAH          4.2140    -2.7250    12.2620 ca         1 3O8      -0.146000
     24 CAX          3.6320    -3.8630    11.7060 ca         1 3O8       0.157100
     25 OAF          3.3710    -4.9430    12.4840 oh         1 3O8      -0.446100
     26 CBD          3.3160    -3.8860    10.3460 ca         1 3O8      -0.137600
     27 H1          -0.3140     0.2260    -0.8600 ho         1 3O8       0.383000
     28 H2           1.7900    -0.8840    -0.5110 h1         1 3O8      -0.016300
     29 H3           1.7900     0.8840    -0.5110 h1         1 3O8      -0.016300
     30 H4           1.5080     0.8370     1.9780 h1         1 3O8       0.013200
     31 H5           3.0190     0.0890     1.4430 h1         1 3O8       0.013200
     32 H6           1.9380    -2.0280     1.5950 hn         1 3O8       0.249800
     33 H8           3.1060    -1.2090     3.5040 h1         1 3O8       0.012700
     34 H9           1.5940    -0.4620     4.0390 h1         1 3O8       0.012700
     35 H10          0.5230    -2.6890     4.1240 h1         1 3O8       0.016700
     36 H11          0.5500    -4.6960     4.8590 ha         1 3O8       0.116000
     37 H12          0.0720    -6.6540     6.2490 ha         1 3O8       0.106000
     38 H15          0.4430    -7.8480     8.3140 hn         1 3O8       0.290300
     39 H16          1.3190    -7.1420     9.6330 hn         1 3O8       0.290300
     40 H17          5.0670     0.0090     9.8020 ho         1 3O8       0.396000
     41 H18          4.9340    -0.7450    11.9260 ha         1 3O8       0.111000
     42 H19          4.4580    -2.7080    13.3170 ha         1 3O8       0.111000
     43 H20          3.9640    -4.9520    13.2170 ho         1 3O8       0.397000
     44 H7           2.0350    -3.4370     3.5890 h1         1 3O8       0.016700
     45 H21          2.5490    -1.8510     5.9120 hn         1 3O8       0.344800
@<TRIPOS>BOND
     1     1     2 1   
     2     1    27 1   
     3     2     3 1   
     4     2    28 1   
     5     2    29 1   
     6     3     4 1   
     7     3    30 1   
     8     3    31 1   
     9     4     5 1   
    10     4    32 1   
    11     5     6 1   
    12     5    33 1   
    13     5    34 1   
    14     6     7 1   
    15     6    35 1   
    16     6    44 1   
    17     7     8 1   
    18     7    45 1   
    19     8     9 ar  
    20     8    10 ar  
    21     9    11 ar  
    22     9    36 1   
    23    10    12 1   
    24    10    14 ar  
    25    11    16 ar  
    26    11    37 1   
    27    12    13 2   
    28    12    15 1   
    29    14    16 ar  
    30    14    17 1   
    31    15    19 ar  
    32    15    26 ar  
    33    16    20 1   
    34    17    18 2   
    35    17    26 1   
    36    19    21 1   
    37    19    22 ar  
    38    20    38 1   
    39    20    39 1   
    40    21    40 1   
    41    22    23 ar  
    42    22    41 1   
    43    23    24 ar  
    44    23    42 1   
    45    24    25 1   
    46    24    26 ar  
    47    25    43 1   
@<TRIPOS>SUBSTRUCTURE
     1 3O8         1 TEMP              0 ****  ****    0 ROOT
