@<TRIPOS>MOLECULE
3OA
   58    60     1     0     0
SMALL
bcc


@<TRIPOS>ATOM
      1 OAC          0.0000     0.0000     0.0000 oh         1 3OA      -0.582300
      2 CAK          1.4300     0.0000     0.0000 c3         1 3OA       0.220400
      3 CAM          1.9380     0.0000     1.4430 c3         1 3OA       0.205900
      4 O1           1.5600    -1.2210     2.0820 os         1 3OA      -0.398600
      5 CAO          1.9890    -1.3240     3.4410 c3         1 3OA       0.202900
      6 CAQ          1.5310    -2.6630     4.0210 c3         1 3OA       0.158800
      7 NAU          2.2060    -3.7570     3.3180 nu         1 3OA      -0.430100
      8 CAY          1.9490    -5.0720     3.6720 ca         1 3OA       0.075100
      9 CAI          0.9450    -5.3660     4.6000 ca         1 3OA      -0.128500
     10 CAJ          0.6830    -6.6660     4.9580 ca         1 3OA      -0.128500
     11 CBE          2.6870    -6.1110     3.0980 ca         1 3OA      -0.200100
     12 CBA          3.7440    -5.8230     2.1120 c          1 3OA       0.668300
     13 OAA          4.1590    -4.6900     1.9670 o          1 3OA      -0.570600
     14 CBC          4.2920    -6.9290     1.3040 ca         1 3OA      -0.137600
     15 CAW          5.0740    -6.6660     0.1770 ca         1 3OA       0.158100
     16 OAE          5.3380    -5.3850    -0.1840 oh         1 3OA      -0.442100
     17 CAG          5.5840    -7.7230    -0.5730 ca         1 3OA      -0.153000
     18 CAH          5.3230    -9.0260    -0.2130 ca         1 3OA      -0.153000
     19 CAX          4.5440    -9.3090     0.9070 ca         1 3OA       0.158100
     20 OAF          4.2910   -10.5960     1.2530 oh         1 3OA      -0.442100
     21 CBD          4.0240    -8.2630     1.6720 ca         1 3OA      -0.137600
     22 CBB          3.1960    -8.5410     2.8600 c          1 3OA       0.668300
     23 OAB          3.1570    -9.6610     3.3350 o          1 3OA      -0.570600
     24 CBF          2.4180    -7.4470     3.4650 ca         1 3OA      -0.200100
     25 CAZ          1.4140    -7.7180     4.3990 ca         1 3OA       0.075100
     26 NAV          1.1420    -9.0280     4.7680 nu         1 3OA      -0.430100
     27 CAR          0.1760    -9.3040     5.8330 c3         1 3OA       0.158800
     28 CAP          0.0620   -10.8150     6.0400 c3         1 3OA       0.202900
     29 O2           1.3080   -11.3250     6.5190 os         1 3OA      -0.398600
     30 CAN          1.3100   -12.7360     6.7470 c3         1 3OA       0.205900
     31 CAL          2.6870   -13.1690     7.2540 c3         1 3OA       0.220400
     32 OAD          2.9300   -12.5790     8.5330 oh         1 3OA      -0.582300
     33 H1          -0.3140     0.3170    -0.8310 ho         1 3OA       0.384500
     34 H2           1.7910     0.8850    -0.5110 h1         1 3OA      -0.006550
     35 H3           1.7910    -0.8850    -0.5100 h1         1 3OA      -0.006550
     36 H4           3.0180     0.0890     1.4450 h1         1 3OA      -0.005550
     37 H5           1.5060     0.8370     1.9780 h1         1 3OA      -0.005550
     38 H6           1.5580    -0.5140     4.0180 h1         1 3OA      -0.004550
     39 H7           3.0700    -1.2620     3.4840 h1         1 3OA      -0.004550
     40 H8           0.4590    -2.7630     3.8980 h1         1 3OA       0.017700
     41 H9           1.7780    -2.7050     5.0750 h1         1 3OA       0.017700
     42 H10          2.8440    -3.5540     2.5730 hn         1 3OA       0.352300
     43 H11          0.3690    -4.5610     5.0410 ha         1 3OA       0.112000
     44 H12         -0.0980    -6.8780     5.6780 ha         1 3OA       0.112000
     45 H14          6.1490    -5.3540    -0.6630 ho         1 3OA       0.394500
     46 H15          6.1920    -7.5180    -1.4470 ha         1 3OA       0.109500
     47 H16          5.7270    -9.8380    -0.8060 ha         1 3OA       0.109500
     48 H17          4.7110   -11.1750     0.6390 ho         1 3OA       0.394500
     49 H19          1.5830    -9.7850     4.2840 hn         1 3OA       0.352300
     50 H20          0.5100    -8.8380     6.7530 h1         1 3OA       0.017700
     51 H21         -0.7910    -8.9030     5.5560 h1         1 3OA       0.017700
     52 H22         -0.1850   -11.2910     5.0990 h1         1 3OA      -0.004550
     53 H23         -0.7160   -11.0230     6.7650 h1         1 3OA      -0.004550
     54 H24          1.0890   -13.2520     5.8200 h1         1 3OA      -0.005550
     55 H25          0.5580   -12.9840     7.4860 h1         1 3OA      -0.005550
     56 H26          2.7160   -14.2480     7.3430 h1         1 3OA      -0.006550
     57 H27          3.4480   -12.8430     6.5560 h1         1 3OA      -0.006550
     58 H28          3.5920   -13.0750     8.9870 ho         1 3OA       0.384500
@<TRIPOS>BOND
     1     1     2 1   
     2     1    33 1   
     3     2     3 1   
     4     2    34 1   
     5     2    35 1   
     6     3     4 1   
     7     3    36 1   
     8     3    37 1   
     9     4     5 1   
    10     5     6 1   
    11     5    38 1   
    12     5    39 1   
    13     6     7 1   
    14     6    40 1   
    15     6    41 1   
    16     7     8 1   
    17     7    42 1   
    18     8     9 ar  
    19     8    11 ar  
    20     9    10 ar  
    21     9    43 1   
    22    10    25 ar  
    23    10    44 1   
    24    11    12 1   
    25    11    24 ar  
    26    12    13 2   
    27    12    14 1   
    28    14    15 ar  
    29    14    21 ar  
    30    15    16 1   
    31    15    17 ar  
    32    16    45 1   
    33    17    18 ar  
    34    17    46 1   
    35    18    19 ar  
    36    18    47 1   
    37    19    20 1   
    38    19    21 ar  
    39    20    48 1   
    40    21    22 1   
    41    22    23 2   
    42    22    24 1   
    43    24    25 ar  
    44    25    26 1   
    45    26    27 1   
    46    26    49 1   
    47    27    28 1   
    48    27    50 1   
    49    27    51 1   
    50    28    29 1   
    51    28    52 1   
    52    28    53 1   
    53    29    30 1   
    54    30    31 1   
    55    30    54 1   
    56    30    55 1   
    57    31    32 1   
    58    31    56 1   
    59    31    57 1   
    60    32    58 1   
@<TRIPOS>SUBSTRUCTURE
     1 3OA         1 TEMP              0 ****  ****    0 ROOT
