@<TRIPOS>MOLECULE
molecule
   56    59     1     0     0
SMALL
bcc


@<TRIPOS>ATOM
      1 C1           0.0000     0.0000     0.0000 ca         1 3OB       0.024000
      2 C2           1.3970     0.0000     0.0000 ca         1 3OB      -0.124000
      3 C3           2.0850     0.0000     1.1970 ca         1 3OB       0.028400
      4 C4           1.3970    -0.0010     2.3970 ca         1 3OB      -0.217000
      5 C5           0.0080    -0.0020     2.4050 ca         1 3OB       0.169100
      6 C6          -0.6920    -0.0010     1.2110 ca         1 3OB      -0.121000
      7 O7          -0.6630    -0.0020     3.5870 os         1 3OB      -0.231200
      8 C8          -0.7180     0.0050    -1.2390 cg         1 3OB       0.238800
      9 Cl9          3.8210    -0.0000     1.1950 cl         1 3OB      -0.086400
     10 C10          0.0590    -0.1170     4.7290 cc         1 3OB       0.101100
     11 C11          0.7610    -1.3040     5.0160 cc         1 3OB      -0.279000
     12 C12          1.4750    -1.4050     6.1570 cd         1 3OB       0.170400
     13 N13          1.5310    -0.3720     7.0420 ns         1 3OB      -0.433100
     14 C14          0.8750     0.7790     6.8070 c          1 3OB       0.633700
     15 C15          0.1220     0.9340     5.6300 cd         1 3OB       0.043800
     16 N16         -0.5610     2.1350     5.3740 nh         1 3OB      -0.766400
     17 O17          0.9380     1.6930     7.6150 o          1 3OB      -0.648500
     18 C18         -2.0250     2.1480     5.3170 c3         1 3OB       0.245100
     19 C19          0.1910     3.3740     5.1620 c3         1 3OB       0.245100
     20 C20          2.2220    -2.6790     6.4550 c3         1 3OB      -0.147200
     21 N21         -1.2780     0.0260    -2.2270 n1         1 3OB      -0.347800
     22 C22          3.6500    -2.5440     5.9930 c          1 3OB       0.674100
     23 O23          4.0240    -1.5140     5.4730 o          1 3OB      -0.608100
     24 N24          4.5110    -3.5670     6.1580 n          1 3OB      -0.504800
     25 C25          4.0910    -4.8250     6.7830 c3         1 3OB       0.111300
     26 C26          6.8050    -3.5490     6.9490 c3         1 3OB      -0.049100
     27 C27          5.9120    -3.4690     5.7120 c3         1 3OB       0.085000
     28 C28          6.3830    -4.6920     7.8420 ca         1 3OB      -0.081300
     29 C29          5.1380    -5.2760     7.7710 ca         1 3OB      -0.047300
     30 C30          4.8120    -6.3190     8.6280 ca         1 3OB      -0.111000
     31 C31          5.7310    -6.7820     9.5470 ca         1 3OB      -0.126000
     32 C32          6.9850    -6.2030     9.6150 ca         1 3OB      -0.152000
     33 C33          7.3070    -5.1650     8.7670 ca         1 3OB      -0.154000
     34 H2           1.8520     0.0720    -0.9800 ha         1 3OB       0.155000
     35 H4           2.3400    -0.0490     2.9290 ha         1 3OB       0.201000
     36 H6          -1.7380    -0.2510     1.3480 ha         1 3OB       0.163000
     37 H11          0.7400    -1.5820     3.9690 ha         1 3OB       0.187000
     38 HN13         2.0690     0.1230     7.7250 hn         1 3OB       0.389500
     39 H18         -2.1120     2.2230     4.2400 h1         1 3OB       0.035367
     40 H18A        -2.3620     3.1640     5.4870 h1         1 3OB       0.035367
     41 H18B        -2.6580     1.2830     5.4750 h1         1 3OB       0.035367
     42 H19         -0.3810     3.7880     4.3410 h1         1 3OB       0.035367
     43 H19A         1.1650     3.1500     4.7440 h1         1 3OB       0.035367
     44 H19B         0.1180     3.9400     6.0830 h1         1 3OB       0.035367
     45 H20          1.8840    -3.4010     7.1890 hc         1 3OB       0.083700
     46 H20A         2.0280    -3.2510     5.5560 hc         1 3OB       0.083700
     47 H25          3.2860    -5.2390     6.1890 h1         1 3OB       0.066700
     48 H25A         3.6590    -4.3260     7.6420 h1         1 3OB       0.066700
     49 H26          6.7810    -2.5670     7.4070 hc         1 3OB       0.067200
     50 H26A         7.8460    -3.8370     6.8790 hc         1 3OB       0.067200
     51 H27          6.2110    -2.4280     5.7450 h1         1 3OB       0.081700
     52 H27A         5.9400    -3.9950     4.7650 h1         1 3OB       0.081700
     53 H30          3.8210    -6.7280     8.7840 ha         1 3OB       0.135000
     54 H31          5.8210    -7.6650    10.1680 ha         1 3OB       0.145000
     55 H32          7.9080    -6.4200    10.1380 ha         1 3OB       0.142000
     56 H33          7.9580    -4.4450     9.2500 ha         1 3OB       0.136000
@<TRIPOS>BOND
     1     1     2 ar  
     2     1     6 ar  
     3     1     8 1   
     4     2     3 ar  
     5     3     4 ar  
     6     3     9 1   
     7     4     5 ar  
     8     5     6 ar  
     9     5     7 1   
    10     7    10 1   
    11     8    21 3   
    12    10    11 1   
    13    10    15 2   
    14    11    12 2   
    15    12    13 1   
    16    12    20 1   
    17    13    14 1   
    18    14    15 1   
    19    14    17 2   
    20    15    16 1   
    21    16    18 1   
    22    16    19 1   
    23    20    22 1   
    24    22    23 2   
    25    22    24 1   
    26    24    25 1   
    27    24    27 1   
    28    25    29 1   
    29    26    27 1   
    30    26    28 1   
    31    28    29 ar  
    32    28    33 ar  
    33    29    30 ar  
    34    30    31 ar  
    35    31    32 ar  
    36    32    33 ar  
    37     2    34 1   
    38     4    35 1   
    39     6    36 1   
    40    11    37 1   
    41    13    38 1   
    42    18    39 1   
    43    18    40 1   
    44    18    41 1   
    45    19    42 1   
    46    19    43 1   
    47    19    44 1   
    48    20    45 1   
    49    20    46 1   
    50    25    47 1   
    51    25    48 1   
    52    26    49 1   
    53    26    50 1   
    54    27    51 1   
    55    27    52 1   
    56    30    53 1   
    57    31    54 1   
    58    32    55 1   
    59    33    56 1   
@<TRIPOS>SUBSTRUCTURE
     1 3OB         1 TEMP              0 ****  ****    0 ROOT
