@<TRIPOS>MOLECULE
3OB
   56    59     1     0     0
SMALL
bcc


@<TRIPOS>ATOM
      1 C1           0.0000     0.0000     0.0000 ca         1 3OB       0.080000
      2 C2           1.3970     0.0000     0.0000 ca         1 3OB      -0.115000
      3 C3           2.0850     0.0000     1.1970 ca         1 3OB      -0.036600
      4 C4           1.3970    -0.0010     2.3970 ca         1 3OB      -0.216000
      5 C5           0.0080    -0.0020     2.4050 ca         1 3OB       0.188100
      6 C6          -0.6920    -0.0010     1.2110 ca         1 3OB      -0.118000
      7 O7          -0.6630    -0.0020     3.5870 os         1 3OB      -0.205200
      8 C8          -0.7180     0.0050    -1.2390 cg         1 3OB       0.226800
      9 Cl9          3.8210    -0.0000     1.1950 cl         1 3OB       0.003600
     10 C10          0.0590    -0.1170     4.7290 cc         1 3OB       0.105100
     11 C11          0.7610    -1.3040     5.0160 cc         1 3OB      -0.275000
     12 C12          1.4750    -1.4050     6.1570 cd         1 3OB       0.025400
     13 N13          1.5310    -0.3720     7.0420 ns         1 3OB       0.013900
     14 C14          0.8750     0.7790     6.8070 c          1 3OB       0.549700
     15 C15          0.1220     0.9340     5.6300 cd         1 3OB      -0.084200
     16 N16         -0.5610     2.1350     5.3740 nh         1 3OB      -0.436400
     17 O17          0.9380     1.6930     7.6150 o          1 3OB      -0.693500
     18 C18         -2.0250     2.1480     5.3170 c3         1 3OB       0.230100
     19 C19          0.1910     3.3740     5.1620 c3         1 3OB       0.230100
     20 C20          2.2220    -2.6790     6.4550 c3         1 3OB      -0.099200
     21 N21         -1.2780     0.0260    -2.2270 n1         1 3OB      -0.368800
     22 C22          3.6500    -2.5440     5.9930 c          1 3OB       0.607100
     23 O23          4.0240    -1.5140     5.4730 o          1 3OB      -0.656100
     24 N24          4.5110    -3.5670     6.1580 n          1 3OB      -0.174800
     25 C25          4.0910    -4.8250     6.7830 c3         1 3OB       0.071300
     26 C26          6.8050    -3.5490     6.9490 c3         1 3OB       0.019900
     27 C27          5.9120    -3.4690     5.7120 c3         1 3OB       0.030000
     28 C28          6.3830    -4.6920     7.8420 ca         1 3OB      -0.091300
     29 C29          5.1380    -5.2760     7.7710 ca         1 3OB      -0.048300
     30 C30          4.8120    -6.3190     8.6280 ca         1 3OB      -0.081000
     31 C31          5.7310    -6.7820     9.5470 ca         1 3OB      -0.097000
     32 C32          6.9850    -6.2030     9.6150 ca         1 3OB      -0.130000
     33 C33          7.3070    -5.1650     8.7670 ca         1 3OB      -0.131000
     34 H2           1.8520     0.0720    -0.9800 ha         1 3OB       0.127000
     35 H4           2.3400    -0.0490     2.9290 ha         1 3OB       0.177000
     36 H6          -1.7380    -0.2510     1.3480 ha         1 3OB       0.132000
     37 H11          0.7400    -1.5820     3.9690 ha         1 3OB       0.171000
     38 HN13         2.0690     0.1230     7.7250 hn         1 3OB       0.237500
     39 H18         -2.1120     2.2230     4.2400 h1         1 3OB       0.002367
     40 H18A        -2.3620     3.1640     5.4870 h1         1 3OB       0.002367
     41 H18B        -2.6580     1.2830     5.4750 h1         1 3OB       0.002367
     42 H19         -0.3810     3.7880     4.3410 h1         1 3OB       0.002367
     43 H19A         1.1650     3.1500     4.7440 h1         1 3OB       0.002367
     44 H19B         0.1180     3.9400     6.0830 h1         1 3OB       0.002367
     45 H20          1.8840    -3.4010     7.1890 hc         1 3OB       0.051700
     46 H20A         2.0280    -3.2510     5.5560 hc         1 3OB       0.051700
     47 H25          3.2860    -5.2390     6.1890 h1         1 3OB       0.038200
     48 H25A         3.6590    -4.3260     7.6420 h1         1 3OB       0.038200
     49 H26          6.7810    -2.5670     7.4070 hc         1 3OB       0.036700
     50 H26A         7.8460    -3.8370     6.8790 hc         1 3OB       0.036700
     51 H27          6.2110    -2.4280     5.7450 h1         1 3OB       0.054200
     52 H27A         5.9400    -3.9950     4.7650 h1         1 3OB       0.054200
     53 H30          3.8210    -6.7280     8.7840 ha         1 3OB       0.108000
     54 H31          5.8210    -7.6650    10.1680 ha         1 3OB       0.117000
     55 H32          7.9080    -6.4200    10.1380 ha         1 3OB       0.117000
     56 H33          7.9580    -4.4450     9.2500 ha         1 3OB       0.113000
@<TRIPOS>BOND
     1     1     2 ar  
     2     1     6 ar  
     3     1     8 1   
     4     2     3 ar  
     5     2    34 1   
     6     3     4 ar  
     7     3     9 1   
     8     4     5 ar  
     9     4    35 1   
    10     5     6 ar  
    11     5     7 1   
    12     6    36 1   
    13     7    10 1   
    14     8    21 3   
    15    10    11 1   
    16    10    15 2   
    17    11    12 2   
    18    11    37 1   
    19    12    13 1   
    20    12    20 1   
    21    13    14 1   
    22    13    38 1   
    23    14    15 1   
    24    14    17 2   
    25    15    16 1   
    26    16    18 1   
    27    16    19 1   
    28    18    39 1   
    29    18    40 1   
    30    18    41 1   
    31    19    42 1   
    32    19    43 1   
    33    19    44 1   
    34    20    22 1   
    35    20    45 1   
    36    20    46 1   
    37    22    23 2   
    38    22    24 1   
    39    24    25 1   
    40    24    27 1   
    41    25    29 1   
    42    25    47 1   
    43    25    48 1   
    44    26    27 1   
    45    26    28 1   
    46    26    49 1   
    47    26    50 1   
    48    27    51 1   
    49    27    52 1   
    50    28    29 ar  
    51    28    33 ar  
    52    29    30 ar  
    53    30    31 ar  
    54    30    53 1   
    55    31    32 ar  
    56    31    54 1   
    57    32    33 ar  
    58    32    55 1   
    59    33    56 1   
@<TRIPOS>SUBSTRUCTURE
     1 3OB         1 TEMP              0 ****  ****    0 ROOT
