@<TRIPOS>MOLECULE
3OC
   19    19     1     0     0
SMALL
bcc


@<TRIPOS>ATOM
      1 CAF         0.0310    0.2180   -0.1390 c3        1 3OC     -0.067400
      2 CAD         1.5420    0.1530   -0.0660 c3        1 3OC     -0.070400
      3 CAE         2.0120   -0.0370    1.3600 c3        1 3OC     -0.179400
      4 CAH         1.4240    1.0050    2.2750 c         1 3OC      0.575100
      5 OAA         2.1360    1.6000    3.0960 o         1 3OC     -0.591100
      6 CAG        -0.0500    1.2340    2.1550 c3        1 3OC     -0.164400
      7 CAJ        -0.5270    1.3370    0.7190 c3        1 3OC     -0.184700
      8 CAI        -2.0800    1.2600    0.6870 c         1 3OC      0.915600
      9 OAC        -2.6420    0.3450    1.3540 o         1 3OC     -0.839300
     10 OAB        -2.6890    2.1130   -0.0150 o         1 3OC     -0.839300
     11 HAF        -0.4110   -0.7550    0.2020 hc        1 3OC      0.047200
     12 HAFA       -0.2870    0.3810   -1.2020 hc        1 3OC      0.047200
     13 HAD         1.9200   -0.6960   -0.6950 hc        1 3OC      0.025700
     14 HADA        1.9800    1.0980   -0.4810 hc        1 3OC      0.025700
     15 HAE         3.1310   -0.0030    1.4080 hc        1 3OC      0.049700
     16 HAEA        1.6810   -1.0420    1.7360 hc        1 3OC      0.049700
     17 HAG        -0.5850    0.3690    2.6410 hc        1 3OC      0.078200
     18 HAGA       -0.3380    2.1630    2.7120 hc        1 3OC      0.078200
     19 HAJ        -0.2150    2.3250    0.2910 hc        1 3OC      0.040700
@<TRIPOS>BOND
     1    1    2 1   
     2    1    7 1   
     3    1   11 1   
     4    1   12 1   
     5    2    3 1   
     6    2   13 1   
     7    2   14 1   
     8    3    4 1   
     9    3   15 1   
    10    3   16 1   
    11    4    5 2   
    12    4    6 1   
    13    6    7 1   
    14    6   17 1   
    15    6   18 1   
    16    7    8 1   
    17    7   19 1   
    18    8    9 1   
    19    8   10 1   
@<TRIPOS>SUBSTRUCTURE
     1 3OC         1 TEMP              0 ****  ****    0 ROOT
