@<TRIPOS>MOLECULE
molecule
   19    19     1     0     0
SMALL
bcc


@<TRIPOS>ATOM
      1 CAF          0.0000     0.0000     0.0000 c3         1 3OC      -0.065400
      2 CAD          1.5290     0.0000     0.0000 c3         1 3OC      -0.081400
      3 CAE          2.0390     0.0000     1.4450 c3         1 3OC      -0.184400
      4 CAH          1.4160     1.1690     2.1750 c          1 3OC       0.569100
      5 OAA          2.1000     1.9490     2.7930 o          1 3OC      -0.569100
      6 CAG         -0.0860     1.3370     2.1100 c3         1 3OC      -0.151400
      7 CAJ         -0.5180     1.2890     0.6400 c3         1 3OC      -0.165700
      8 CAI         -2.0230     1.3220     0.5580 c          1 3OC       0.893600
      9 OAC         -2.6200     0.4070     0.0400 o          1 3OC      -0.846300
     10 OAB         -2.7000     2.3660     1.0590 o          1 3OC      -0.846300
     11 HAF         -0.3590    -0.0630    -1.0200 hc         1 3OC       0.050200
     12 HAFA        -0.3590    -0.8510     0.5660 hc         1 3OC       0.050200
     13 HAD          1.8900     0.8860    -0.5090 hc         1 3OC       0.029700
     14 HADA         1.8890    -0.8860    -0.5080 hc         1 3OC       0.029700
     15 HAE          3.1170     0.1020     1.4500 hc         1 3OC       0.048200
     16 HAEA         1.7520    -0.9250     1.9310 hc         1 3OC       0.048200
     17 HAG         -0.5650     0.5340     2.6560 hc         1 3OC       0.073200
     18 HAGA        -0.3620     2.2930     2.5390 hc         1 3OC       0.073200
     19 HAJ         -0.1050     2.1420     0.1150 hc         1 3OC       0.045700
@<TRIPOS>BOND
     1     1     2 1
     2     1     7 1
     3     2     3 1
     4     3     4 1
     5     4     5 2
     6     4     6 1
     7     6     7 1
     8     7     8 1
     9     8     9 1
    10     8    10 1
    11     1    11 1
    12     1    12 1
    13     2    13 1
    14     2    14 1
    15     3    15 1
    16     3    16 1
    17     6    17 1
    18     6    18 1
    19     7    19 1
@<TRIPOS>SUBSTRUCTURE
     1 3OC         1 TEMP              0 ****  ****    0 ROOT
