@<TRIPOS>MOLECULE
molecule
   54    54     1     0     0
SMALL
bcc


@<TRIPOS>ATOM
      1 OAA          0.0000     0.0000     0.0000 o          1 3OG      -0.551000
      2 OAB          1.8800     0.0010    -1.1620 os         1 3OG      -0.420900
      3 CAC          1.2080     0.0000     0.0000 c          1 3OG       0.627100
      4 CAD          1.9620     0.0000     1.3060 c3         1 3OG      -0.139100
      5 CAE         -0.2800    -3.5910    -2.1550 c3         1 3OG      -0.083400
      6 CAF          0.0420    -2.1650    -1.7010 c3         1 3OG      -0.122400
      7 CAG          0.8120    -1.4400    -2.8090 c3         1 3OG       0.148100
      8 CAH          1.0890     0.0020    -2.3800 c3         1 3OG       0.151100
      9 CAI          1.8590     0.7250    -3.4870 c3         1 3OG      -0.078400
     10 CAJ          2.0270     2.1980    -3.1130 c3         1 3OG      -0.083400
     11 CAK          2.7960     2.9210    -4.2210 c3         1 3OG      -0.081400
     12 CAL          2.9650     4.3950    -3.8470 c3         1 3OG      -0.081400
     13 CAM          3.7350     5.1170    -4.9550 c3         1 3OG      -0.082400
     14 CAN          3.9020     6.5910    -4.5810 c3         1 3OG      -0.081400
     15 CAO          4.6720     7.3130    -5.6890 c3         1 3OG      -0.082400
     16 CAP          4.8400     8.7880    -5.3150 c3         1 3OG      -0.081400
     17 CAQ          5.6100     9.5100    -6.4220 c3         1 3OG      -0.084400
     18 CAR          5.7780    10.9840    -6.0480 c3         1 3OG      -0.092100
     19 CAS         -1.1340    -3.5300    -3.4270 c3         1 3OG      -0.182400
     20 CAT         -0.4270    -2.6500    -4.4350 c          1 3OG       0.740600
     21 OAU          0.0130    -1.4410    -4.0260 os         1 3OG      -0.439900
     22 OAV         -0.2590    -3.0190    -5.5730 o          1 3OG      -0.562500
     23 HAD          2.3450     0.9940     1.5010 hc         1 3OG       0.071367
     24 HADA         2.7860    -0.7000     1.2470 hc         1 3OG       0.071367
     25 HADB         1.2950    -0.2940     2.1070 hc         1 3OG       0.071367
     26 HAEA         0.6420    -4.1200    -2.3650 hc         1 3OG       0.053200
     27 HAF         -0.8810    -1.6350    -1.4970 hc         1 3OG       0.070200
     28 HAFA         0.6500    -2.2010    -0.8040 hc         1 3OG       0.070200
     29 HAG          1.7480    -1.9540    -2.9920 h1         1 3OG       0.061700
     30 HAH          0.1500     0.5120    -2.2010 h1         1 3OG       0.085700
     31 HAI          2.8340     0.2680    -3.6060 hc         1 3OG       0.066200
     32 HAIA         1.3090     0.6490    -4.4180 hc         1 3OG       0.066200
     33 HAJ          2.5780     2.2740    -2.1830 hc         1 3OG       0.045700
     34 HAJA         1.0520     2.6550    -2.9940 hc         1 3OG       0.045700
     35 HAK          2.2460     2.8450    -5.1510 hc         1 3OG       0.043200
     36 HAKA         3.7710     2.4650    -4.3410 hc         1 3OG       0.043200
     37 HAL          3.5150     4.4710    -2.9170 hc         1 3OG       0.041200
     38 HALA         1.9900     4.8510    -3.7290 hc         1 3OG       0.041200
     39 HAM          4.7100     4.6610    -5.0730 hc         1 3OG       0.042200
     40 HAMA         3.1850     5.0400    -5.8860 hc         1 3OG       0.042200
     41 HAN          2.9270     7.0470    -4.4630 hc         1 3OG       0.041200
     42 HANA         4.4520     6.6670    -3.6510 hc         1 3OG       0.041200
     43 HAO          4.1230     7.2370    -6.6200 hc         1 3OG       0.041200
     44 HAOA         5.6480     6.8570    -5.8070 hc         1 3OG       0.041200
     45 HAP          5.3890     8.8640    -4.3850 hc         1 3OG       0.040700
     46 HAPA         3.8650     9.2440    -5.1970 hc         1 3OG       0.040700
     47 HAQ          6.5860     9.0540    -6.5400 hc         1 3OG       0.040200
     48 HAQA         5.0610     9.4340    -7.3530 hc         1 3OG       0.040200
     49 HAR          4.8020    11.4420    -5.9360 hc         1 3OG       0.032367
     50 HARA         6.3280    11.4950    -6.8300 hc         1 3OG       0.032367
     51 HARB         6.3220    11.0610    -5.1150 hc         1 3OG       0.032367
     52 HAS         -2.1040    -3.1070    -3.1930 hc         1 3OG       0.078200
     53 HASA        -1.2520    -4.5260    -3.8340 hc         1 3OG       0.078200
     54 HAE         -0.8290    -4.1040    -1.3750 hc         1 3OG       0.053200
@<TRIPOS>BOND
     1     3     1 2   
     2     8     2 1   
     3     2     3 1   
     4     3     4 1   
     5     4    23 1   
     6     4    24 1   
     7     4    25 1   
     8     5     6 1   
     9     5    19 1   
    10     5    54 1   
    11     5    26 1   
    12     6     7 1   
    13     6    27 1   
    14     6    28 1   
    15     7    21 1   
    16     7     8 1   
    17     7    29 1   
    18     9     8 1   
    19     8    30 1   
    20     9    10 1   
    21     9    31 1   
    22     9    32 1   
    23    11    10 1   
    24    10    33 1   
    25    10    34 1   
    26    12    11 1   
    27    11    35 1   
    28    11    36 1   
    29    13    12 1   
    30    12    37 1   
    31    12    38 1   
    32    14    13 1   
    33    13    39 1   
    34    13    40 1   
    35    14    15 1   
    36    14    41 1   
    37    14    42 1   
    38    16    15 1   
    39    15    43 1   
    40    15    44 1   
    41    16    17 1   
    42    16    45 1   
    43    16    46 1   
    44    18    17 1   
    45    17    47 1   
    46    17    48 1   
    47    18    49 1   
    48    18    50 1   
    49    18    51 1   
    50    19    20 1   
    51    19    52 1   
    52    19    53 1   
    53    21    20 1   
    54    20    22 2   
@<TRIPOS>SUBSTRUCTURE
     1 3OG         1 TEMP              0 ****  ****    0 ROOT
