@<TRIPOS>MOLECULE
3OG
   54    54     1     0     0
SMALL
bcc


@<TRIPOS>ATOM
      1 OAA         0.0340    0.2170    0.0940 o         1 3OG     -0.546000
      2 OAB         1.8980   -0.1180   -1.1080 os        1 3OG     -0.442900
      3 CAC         1.2590    0.0840    0.0850 c         1 3OG      0.634100
      4 CAD         2.1990    0.1060    1.2400 c3        1 3OG     -0.151100
      5 CAE        -0.3980   -3.6040   -2.2820 c3        1 3OG     -0.080400
      6 CAF         0.0180   -2.2580   -1.7380 c3        1 3OG     -0.119400
      7 CAG         0.8470   -1.5130   -2.7690 c3        1 3OG      0.134100
      8 CAH         1.1300   -0.0610   -2.3240 c3        1 3OG      0.146100
      9 CAI         1.9950    0.6660   -3.3460 c3        1 3OG     -0.085400
     10 CAJ         2.0220    2.1570   -3.0920 c3        1 3OG     -0.078400
     11 CAK         2.9050    2.8640   -4.0980 c3        1 3OG     -0.078400
     12 CAL         2.9270    4.3580   -3.8530 c3        1 3OG     -0.078400
     13 CAM         3.8130    5.0650   -4.8560 c3        1 3OG     -0.079400
     14 CAN         3.8340    6.5590   -4.6130 c3        1 3OG     -0.078400
     15 CAO         4.7220    7.2660   -5.6140 c3        1 3OG     -0.079400
     16 CAP         4.7420    8.7600   -5.3720 c3        1 3OG     -0.079400
     17 CAQ         5.6300    9.4690   -6.3720 c3        1 3OG     -0.080400
     18 CAR         5.6530   10.9570   -6.1350 c3        1 3OG     -0.092100
     19 CAS        -1.2140   -3.4210   -3.5390 c3        1 3OG     -0.163400
     20 CAT        -0.6730   -2.3720   -4.4570 c         1 3OG      0.721600
     21 OAU         0.2000   -1.3960   -4.0440 os        1 3OG     -0.421900
     22 OAV        -0.9790   -2.2310   -5.6430 o         1 3OG     -0.583500
     23 HAD         3.2260   -0.2000    0.9280 hc        1 3OG      0.077700
     24 HADA        2.2330    1.1450    1.6530 hc        1 3OG      0.077700
     25 HADB        1.8220   -0.5880    2.0300 hc        1 3OG      0.077700
     26 HAEA       -1.0040   -4.1580   -1.5180 hc        1 3OG      0.054700
     27 HAF         0.6330   -2.3820   -0.8080 hc        1 3OG      0.070700
     28 HAFA       -0.8830   -1.6490   -1.4610 hc        1 3OG      0.070700
     29 HAG         1.8210   -2.0490   -2.9500 h1        1 3OG      0.063700
     30 HAH         0.1600    0.4810   -2.1560 h1        1 3OG      0.090700
     31 HAI         1.5740    0.4570   -4.3670 hc        1 3OG      0.067700
     32 HAIA        3.0370    0.2530   -3.3100 hc        1 3OG      0.067700
     33 HAJ         2.4010    2.3510   -2.0540 hc        1 3OG      0.042200
     34 HAJA        0.9810    2.5700   -3.1500 hc        1 3OG      0.042200
     35 HAK         2.5320    2.6580   -5.1360 hc        1 3OG      0.042200
     36 HAKA        3.9490    2.4570   -4.0340 hc        1 3OG      0.042200
     37 HAL         1.8840    4.7650   -3.9210 hc        1 3OG      0.039200
     38 HALA        3.2960    4.5640   -2.8140 hc        1 3OG      0.039200
     39 HAM         3.4440    4.8580   -5.8960 hc        1 3OG      0.040200
     40 HAMA        4.8570    4.6580   -4.7890 hc        1 3OG      0.040200
     41 HAN         2.7910    6.9660   -4.6820 hc        1 3OG      0.039200
     42 HANA        4.2010    6.7660   -3.5730 hc        1 3OG      0.039200
     43 HAO         4.3550    7.0590   -6.6540 hc        1 3OG      0.039200
     44 HAOA        5.7650    6.8600   -5.5450 hc        1 3OG      0.039200
     45 HAP         5.1080    8.9680   -4.3320 hc        1 3OG      0.039200
     46 HAPA        3.6990    9.1670   -5.4420 hc        1 3OG      0.039200
     47 HAQ         6.6730    9.0600   -6.3020 hc        1 3OG      0.038200
     48 HAQA        5.2640    9.2580   -7.4120 hc        1 3OG      0.038200
     49 HAR         6.0390   11.1870   -5.1130 hc        1 3OG      0.032367
     50 HARA        4.6270   11.3860   -6.2270 hc        1 3OG      0.032367
     51 HARB        6.3140   11.4590   -6.8830 hc        1 3OG      0.032367
     52 HAS        -2.2630   -3.1130   -3.2760 hc        1 3OG      0.085200
     53 HASA       -1.2810   -4.3870   -4.1080 hc        1 3OG      0.085200
     54 HAE         0.5110   -4.2230   -2.5010 hc        1 3OG      0.054700
@<TRIPOS>BOND
     1    1    3 2   
     2    2    3 1   
     3    2    8 1   
     4    3    4 1   
     5    4   23 1   
     6    4   24 1   
     7    4   25 1   
     8    5    6 1   
     9    5   19 1   
    10    5   26 1   
    11    5   54 1   
    12    6    7 1   
    13    6   27 1   
    14    6   28 1   
    15    7    8 1   
    16    7   21 1   
    17    7   29 1   
    18    8    9 1   
    19    8   30 1   
    20    9   10 1   
    21    9   31 1   
    22    9   32 1   
    23   10   11 1   
    24   10   33 1   
    25   10   34 1   
    26   11   12 1   
    27   11   35 1   
    28   11   36 1   
    29   12   13 1   
    30   12   37 1   
    31   12   38 1   
    32   13   14 1   
    33   13   39 1   
    34   13   40 1   
    35   14   15 1   
    36   14   41 1   
    37   14   42 1   
    38   15   16 1   
    39   15   43 1   
    40   15   44 1   
    41   16   17 1   
    42   16   45 1   
    43   16   46 1   
    44   17   18 1   
    45   17   47 1   
    46   17   48 1   
    47   18   49 1   
    48   18   50 1   
    49   18   51 1   
    50   19   20 1   
    51   19   52 1   
    52   19   53 1   
    53   20   21 1   
    54   20   22 2   
@<TRIPOS>SUBSTRUCTURE
     1 3OG         1 TEMP              0 ****  ****    0 ROOT
