@<TRIPOS>MOLECULE
3OH
   11    10     1     0     0
SMALL
bcc


@<TRIPOS>ATOM
      1 C1          0.0060    0.0000    0.0350 c         1 3OH      0.909600
      2 O1          1.2720   -0.0020    0.0340 o         1 3OH     -0.852300
      3 O2         -0.6970    0.0030    1.0860 o         1 3OH     -0.852300
      4 C2         -0.7390    0.0010   -1.3110 c3        1 3OH     -0.197400
      5 C3          0.2320   -0.0000   -2.4670 c3        1 3OH      0.143400
      6 O3         -0.5120   -0.0010   -3.6860 oh        1 3OH     -0.632800
      7 H21        -1.3970   -0.9020   -1.3600 hc        1 3OH      0.032700
      8 H22        -1.3970    0.9030   -1.3610 hc        1 3OH      0.032700
      9 H31         0.8870   -0.9110   -2.4260 h1        1 3OH      0.023700
     10 H32         0.8870    0.9110   -2.4270 h1        1 3OH      0.023700
     11 HO3         0.1380   -0.0020   -4.3950 ho        1 3OH      0.369000
@<TRIPOS>BOND
     1    1    2 1   
     2    1    3 1   
     3    1    4 1   
     4    4    5 1   
     5    4    7 1   
     6    4    8 1   
     7    5    6 1   
     8    5    9 1   
     9    5   10 1   
    10    6   11 1   
@<TRIPOS>SUBSTRUCTURE
     1 3OH         1 TEMP              0 ****  ****    0 ROOT
