@<TRIPOS>MOLECULE
molecule
   11    10     1     0     0
SMALL
bcc


@<TRIPOS>ATOM
      1 C1           0.0000     0.0000     0.0000 c          1 3OH       0.892600
      2 O1           1.2090     0.0000     0.0000 o          1 3OH      -0.856300
      3 O2          -0.6700     0.0000     1.1620 o          1 3OH      -0.856300
      4 C2          -0.7520     0.0000    -1.3050 c3         1 3OH      -0.179400
      5 C3           0.2420     0.0000    -2.4670 c3         1 3OH       0.144400
      6 O3          -0.4710     0.0000    -3.7050 oh         1 3OH      -0.640800
      7 H21         -1.3750     0.8840    -1.3630 hc         1 3OH       0.038700
      8 H22         -1.3750    -0.8840    -1.3630 hc         1 3OH       0.038700
      9 H31          0.8650     0.8840    -2.4090 h1         1 3OH       0.022700
     10 H32          0.8650    -0.8840    -2.4090 h1         1 3OH       0.022700
     11 HO3          0.1430     0.0000    -4.4210 ho         1 3OH       0.373000
@<TRIPOS>BOND
     1     1     2 1   
     2     1     3 1   
     3     1     4 1   
     4     4     5 1   
     5     4     7 1   
     6     4     8 1   
     7     5     6 1   
     8     5     9 1   
     9     5    10 1   
    10     6    11 1   
@<TRIPOS>SUBSTRUCTURE
     1 3OH         1 TEMP              0 ****  ****    0 ROOT
