@<TRIPOS>MOLECULE
molecule
   48    50     1     0     0
SMALL
bcc


@<TRIPOS>ATOM
      1 NAS          0.0000     0.0000     0.0000 nz         1 3OK      -0.807600
      2 CAO          1.4690     0.0000     0.0000 c3         1 3OK       0.077800
      3 CAQ          1.9790     0.0000     1.4430 c3         1 3OK       0.219800
      4 NAU          3.4430    -0.0000     1.4420 nu         1 3OK      -0.823100
      5 CAY          4.1380    -0.0000     2.6440 ca         1 3OK       0.199600
      6 CAI          3.4480     0.1320     3.8520 ca         1 3OK      -0.148000
      7 CBE          5.5280    -0.1400     2.6510 ca         1 3OK      -0.150100
      8 CAJ          4.1250     0.1280     5.0480 ca         1 3OK      -0.148000
      9 CBA          6.2740    -0.2870     1.3890 c          1 3OK       0.616300
     10 OAA          5.6870    -0.5380     0.3520 o          1 3OK      -0.531100
     11 CBF          6.2240    -0.1410     3.8780 ca         1 3OK      -0.150100
     12 CBC          7.7400    -0.1260     1.3960 ca         1 3OK      -0.147100
     13 CAZ          5.5160    -0.0110     5.0760 ca         1 3OK       0.199600
     14 CBB          7.6910    -0.2880     3.8860 c          1 3OK       0.616300
     15 OAB          8.2790    -0.5370     4.9210 o          1 3OK      -0.531100
     16 CAW          8.4450     0.0270     0.2020 ca         1 3OK       0.162100
     17 NAV          6.1910    -0.0150     6.2880 nu         1 3OK      -0.823100
     18 OAE          7.7840     0.0300    -0.9830 oh         1 3OK      -0.474100
     19 CAG          9.8300     0.1780     0.2300 ca         1 3OK      -0.147500
     20 CAR          5.4380    -0.0150     7.5450 c3         1 3OK       0.219800
     21 CAH         10.5090     0.1780     1.4280 ca         1 3OK      -0.147500
     22 CAP          6.4140    -0.0200     8.7240 c3         1 3OK       0.077800
     23 CAX          9.8220     0.0270     2.6310 ca         1 3OK       0.162100
     24 NAT          5.6600    -0.0190     9.9840 nz         1 3OK      -0.807600
     25 OAF         10.5010     0.0270     3.8060 oh         1 3OK      -0.474100
     26 CBD          8.4360    -0.1260     2.6230 ca         1 3OK      -0.147100
     27 H1          -0.3340     0.8180     0.4700 hn         1 3OK       0.462300
     28 H2          -0.3340    -0.8160     0.4740 hn         1 3OK       0.462300
     29 H4           1.8300    -0.8840    -0.5110 hx         1 3OK       0.125450
     30 H5           1.8300     0.8850    -0.5110 hx         1 3OK       0.125450
     31 H6           1.6180    -0.8840     1.9540 h1         1 3OK       0.050200
     32 H7           1.6180     0.8850     1.9530 h1         1 3OK       0.050200
     33 H8           3.9430     0.0200     0.5750 hn         1 3OK       0.490800
     34 H9           2.3700     0.2410     3.8450 ha         1 3OK       0.129000
     35 H10          3.5770     0.2320     5.9770 ha         1 3OK       0.129000
     36 H13          7.1900     0.0270     6.3030 hn         1 3OK       0.490800
     37 H14          8.3640    -0.2610    -1.6670 ho         1 3OK       0.436500
     38 H15         10.3770     0.2970    -0.6980 ha         1 3OK       0.159000
     39 H16          4.8170     0.8720     7.5940 h1         1 3OK       0.050200
     40 H17          4.8110    -0.8970     7.5910 h1         1 3OK       0.050200
     41 H18         11.5860     0.2960     1.4350 ha         1 3OK       0.159000
     42 H19          7.0410     0.8620     8.6780 hx         1 3OK       0.125450
     43 H20          7.0350    -0.9070     8.6750 hx         1 3OK       0.125450
     44 H21          5.0880     0.8010    10.0300 hn         1 3OK       0.462300
     45 H22          5.0800    -0.8340    10.0260 hn         1 3OK       0.462300
     46 H24         11.3880    -0.2570     3.6570 ho         1 3OK       0.436500
     47 HAS3        -0.3340     0.0050    -0.9440 hn         1 3OK       0.462300
     48 HAT3         6.2980    -0.0250    10.7550 hn         1 3OK       0.462300
@<TRIPOS>BOND
     1    24    22 1
     2    22    20 1
     3    20    17 1
     4    17    13 1
     5     8    13 ar
     6     8     6 ar
     7    13    11 ar
     8     6     5 ar
     9     1     2 1
    10    15    14 2
    11     2     3 1
    12    11    14 1
    13    11     7 ar
    14     5     7 ar
    15     5     4 1
    16    14    26 1
    17     7     9 1
    18     4     3 1
    19    25    23 1
    20    26    23 ar
    21    26    12 ar
    22     9    12 1
    23     9    10 2
    24    23    21 ar
    25    12    16 ar
    26    21    19 ar
    27    16    19 ar
    28    16    18 1
    29     1    27 1
    30     1    28 1
    31     2    29 1
    32     2    30 1
    33     3    31 1
    34     3    32 1
    35     4    33 1
    36     6    34 1
    37     8    35 1
    38    17    36 1
    39    18    37 1
    40    19    38 1
    41    20    39 1
    42    20    40 1
    43    21    41 1
    44    22    42 1
    45    22    43 1
    46    24    44 1
    47    24    45 1
    48    25    46 1
    49    47     1 1
    50    48    24 1
@<TRIPOS>SUBSTRUCTURE
     1 3OK         1 TEMP              0 ****  ****    0 ROOT
