@<TRIPOS>MOLECULE
3OL
   25    24     1     0     0
SMALL
bcc


@<TRIPOS>ATOM
      1 C1         -0.0140   -0.2050    0.0840 c2        1 3OL     -0.206000
      2 C2          1.2800    0.1010    0.0870 c2        1 3OL     -0.210200
      3 C3          2.1270    0.1110    1.3210 c3        1 3OL      0.170300
      4 O1          3.0500    1.1970    1.2880 oh        1 3OL     -0.597800
      5 C4          2.9600   -1.1670    1.4120 c3        1 3OL     -0.070400
      6 C5          3.6110   -1.3020    2.7720 c3        1 3OL     -0.079400
      7 C6          4.4800   -2.5390    2.8420 c3        1 3OL     -0.078400
      8 C7          5.1220   -2.6830    4.2060 c3        1 3OL     -0.079400
      9 C8          5.9920   -3.9100    4.2800 c3        1 3OL     -0.092100
     10 H11        -0.5670   -0.4670    0.9960 ha        1 3OL      0.113500
     11 H12        -0.6110   -0.2180   -0.8380 ha        1 3OL      0.113500
     12 H21         1.8200    0.3630   -0.8380 ha        1 3OL      0.133000
     13 H31         1.4810    0.2110    2.2410 h1        1 3OL      0.036700
     14 HO1         2.5300    2.0000    1.1720 ho        1 3OL      0.400000
     15 H41         3.7480   -1.1460    0.6150 hc        1 3OL      0.051700
     16 H42         2.2900   -2.0430    1.2160 hc        1 3OL      0.051700
     17 H51         4.2310   -0.3870    2.9730 hc        1 3OL      0.046200
     18 H52         2.8210   -1.3500    3.5670 hc        1 3OL      0.046200
     19 H61         3.8610   -3.4480    2.6210 hc        1 3OL      0.039200
     20 H62         5.2780   -2.4830    2.0560 hc        1 3OL      0.039200
     21 H71         4.3220   -2.7390    4.9910 hc        1 3OL      0.039200
     22 H72         5.7370   -1.7700    4.4260 hc        1 3OL      0.039200
     23 H81         6.8110   -3.8600    3.5220 hc        1 3OL      0.032033
     24 H82         6.4550   -3.9970    5.2930 hc        1 3OL      0.032033
     25 H83         5.3920   -4.8320    4.0870 hc        1 3OL      0.032033
@<TRIPOS>BOND
     1    1    2 2   
     2    1   10 1   
     3    1   11 1   
     4    2    3 1   
     5    2   12 1   
     6    3    4 1   
     7    3    5 1   
     8    3   13 1   
     9    4   14 1   
    10    5    6 1   
    11    5   15 1   
    12    5   16 1   
    13    6    7 1   
    14    6   17 1   
    15    6   18 1   
    16    7    8 1   
    17    7   19 1   
    18    7   20 1   
    19    8    9 1   
    20    8   21 1   
    21    8   22 1   
    22    9   23 1   
    23    9   24 1   
    24    9   25 1   
@<TRIPOS>SUBSTRUCTURE
     1 3OL         1 TEMP              0 ****  ****    0 ROOT
