@<TRIPOS>MOLECULE
molecule
   25    24     1     0     0
SMALL
bcc


@<TRIPOS>ATOM
      1 C1           0.0000     0.0000     0.0000 c2         1 3OL      -0.216000
      2 C2           1.3100     0.0000     0.0000 c2         1 3OL      -0.199200
      3 C3           2.0640     0.0000     1.3050 c3         1 3OL       0.179300
      4 O1           2.8850     1.1680     1.3810 oh         1 3OL      -0.602800
      5 C4           2.9440    -1.2480     1.3850 c3         1 3OL      -0.073400
      6 C5           3.6140    -1.3130     2.7600 c3         1 3OL      -0.082400
      7 C6           4.4940    -2.5610     2.8390 c3         1 3OL      -0.081400
      8 C7           5.1640    -2.6260     4.2140 c3         1 3OL      -0.083400
      9 C8           6.0440    -3.8740     4.2940 c3         1 3OL      -0.092100
     10 H11         -0.5420     0.0000    -0.9380 ha         1 3OL       0.112000
     11 H12         -0.5420     0.0000     0.9380 ha         1 3OL       0.112000
     12 H21          1.8520     0.0000    -0.9380 ha         1 3OL       0.135000
     13 H31          1.3610    -0.0010     2.1280 h1         1 3OL       0.031700
     14 HO1          2.3680     1.8970     1.6810 ho         1 3OL       0.401000
     15 H41          3.7050    -1.2040     0.6150 hc         1 3OL       0.052700
     16 H42          2.3330    -2.1310     1.2390 hc         1 3OL       0.052700
     17 H51          2.8540    -1.3580     3.5300 hc         1 3OL       0.046700
     18 H52          4.2250    -0.4300     2.9060 hc         1 3OL       0.046700
     19 H61          3.8830    -3.4440     2.6930 hc         1 3OL       0.040700
     20 H62          5.2550    -2.5170     2.0690 hc         1 3OL       0.040700
     21 H71          4.4040    -2.6700     4.9840 hc         1 3OL       0.040200
     22 H72          5.7750    -1.7440     4.3600 hc         1 3OL       0.040200
     23 H81          6.5180    -3.9200     5.2670 hc         1 3OL       0.032367
     24 H82          6.8040    -3.8300     3.5240 hc         1 3OL       0.032367
     25 H83          5.4330    -4.7570     4.1490 hc         1 3OL       0.032367
@<TRIPOS>BOND
     1     1     2 2   
     2     1    10 1   
     3     1    11 1   
     4     2     3 1   
     5     2    12 1   
     6     3     4 1   
     7     3     5 1   
     8     3    13 1   
     9     4    14 1   
    10     5     6 1   
    11     5    15 1   
    12     5    16 1   
    13     6     7 1   
    14     6    17 1   
    15     6    18 1   
    16     7     8 1   
    17     7    19 1   
    18     7    20 1   
    19     8     9 1   
    20     8    21 1   
    21     8    22 1   
    22     9    23 1   
    23     9    24 1   
    24     9    25 1   
@<TRIPOS>SUBSTRUCTURE
     1 3OL         1 TEMP              0 ****  ****    0 ROOT
