@<TRIPOS>MOLECULE
molecule
   25    24     1     0     0
SMALL
bcc


@<TRIPOS>ATOM
      1 C1           0.0000     0.0000     0.0000 c2         1 3OM      -0.200000
      2 O1           1.1400    -0.1170     2.3890 oh         1 3OM      -0.603800
      3 C2           1.3100     0.0000     0.0000 c2         1 3OM      -0.209200
      4 C3           2.0640     0.0000     1.3050 c3         1 3OM       0.179300
      5 C4           3.0350    -1.1810     1.3330 c3         1 3OM      -0.080400
      6 C5           3.8880    -1.1100     2.6020 c3         1 3OM      -0.083400
      7 C6           4.8590    -2.2920     2.6300 c3         1 3OM      -0.081400
      8 C7           5.7120    -2.2200     3.8980 c3         1 3OM      -0.084400
      9 C8           6.6840    -3.4010     3.9270 c3         1 3OM      -0.092100
     10 H1          -0.5420     0.0000    -0.9380 ha         1 3OM       0.118500
     11 H1A         -0.5420     0.0000     0.9380 ha         1 3OM       0.118500
     12 H2           1.8520     0.0000    -0.9380 ha         1 3OM       0.125000
     13 H3           2.6180     0.9260     1.4020 h1         1 3OM       0.035700
     14 H4           3.6790    -1.1390     0.4620 hc         1 3OM       0.053200
     15 H4A          2.4760    -2.1090     1.3240 hc         1 3OM       0.053200
     16 H5           4.4470    -0.1820     2.6100 hc         1 3OM       0.044200
     17 H5A          3.2440    -1.1520     3.4720 hc         1 3OM       0.044200
     18 H6           5.5030    -2.2510     1.7590 hc         1 3OM       0.041200
     19 H6A          4.3000    -3.2200     2.6230 hc         1 3OM       0.041200
     20 H7           6.2710    -1.2920     3.9050 hc         1 3OM       0.040200
     21 H7A          5.0690    -2.2610     4.7680 hc         1 3OM       0.040200
     22 H8           7.3270    -3.3610     3.0560 hc         1 3OM       0.032367
     23 H8A          7.2880    -3.3500     4.8240 hc         1 3OM       0.032367
     24 H8B          6.1250    -4.3290     3.9200 hc         1 3OM       0.032367
     25 HO1          1.0650     0.7130     2.8290 ho         1 3OM       0.400000
@<TRIPOS>BOND
     1     1     3 2
     2     2     4 1
     3     3     4 1
     4     4     5 1
     5     5     6 1
     6     6     7 1
     7     7     8 1
     8     8     9 1
     9     1    10 1
    10     1    11 1
    11     2    25 1
    12     3    12 1
    13     4    13 1
    14     5    14 1
    15     5    15 1
    16     6    16 1
    17     6    17 1
    18     7    18 1
    19     7    19 1
    20     8    20 1
    21     8    21 1
    22     9    22 1
    23     9    23 1
    24     9    24 1
@<TRIPOS>SUBSTRUCTURE
     1 3OM         1 TEMP              0 ****  ****    0 ROOT
