@<TRIPOS>MOLECULE
3OM
   25    24     1     0     0
SMALL
bcc


@<TRIPOS>ATOM
      1 C1          0.0520   -0.0330   -0.0900 c2        1 3OM     -0.209000
      2 O1          1.1440   -0.1230    2.5170 oh        1 3OM     -0.597800
      3 C2          1.3530    0.1590    0.1070 c2        1 3OM     -0.209200
      4 C3          2.0450    0.0470    1.4290 c3        1 3OM      0.170300
      5 C4          2.9840   -1.1600    1.4450 c3        1 3OM     -0.068400
      6 C5          3.9420   -1.0920    2.6140 c3        1 3OM     -0.079400
      7 C6          4.8340   -2.3140    2.6600 c3        1 3OM     -0.078400
      8 C7          5.8020   -2.2440    3.8230 c3        1 3OM     -0.079400
      9 C8          6.6900   -3.4600    3.8770 c3        1 3OM     -0.092100
     10 H1         -0.6350   -0.3120    0.7210 ha        1 3OM      0.117000
     11 H1A        -0.4110    0.0670   -1.0800 ha        1 3OM      0.117000
     12 H2          2.0280    0.4210   -0.7250 ha        1 3OM      0.125000
     13 H3          2.6410    0.9930    1.6000 h1        1 3OM      0.037700
     14 H4          2.3720   -2.0960    1.5100 hc        1 3OM      0.052200
     15 H4A         3.5540   -1.1830    0.4800 hc        1 3OM      0.052200
     16 H5          4.5740   -0.1680    2.5340 hc        1 3OM      0.046200
     17 H5A         3.3530   -1.0120    3.5660 hc        1 3OM      0.046200
     18 H6          5.4070   -2.4010    1.7000 hc        1 3OM      0.039200
     19 H6A         4.2030   -3.2370    2.7530 hc        1 3OM      0.039200
     20 H7          5.2260   -2.1540    4.7820 hc        1 3OM      0.039200
     21 H7A         6.4320   -1.3200    3.7290 hc        1 3OM      0.039200
     22 H8          7.2900   -3.5520    2.9390 hc        1 3OM      0.032033
     23 H8A         7.3950   -3.3870    4.7400 hc        1 3OM      0.032033
     24 H8B         6.0810   -4.3880    3.9960 hc        1 3OM      0.032033
     25 HO1         0.5290    0.6190    2.4860 ho        1 3OM      0.400000
@<TRIPOS>BOND
     1    1    3 2   
     2    1   10 1   
     3    1   11 1   
     4    2    4 1   
     5    2   25 1   
     6    3    4 1   
     7    3   12 1   
     8    4    5 1   
     9    4   13 1   
    10    5    6 1   
    11    5   14 1   
    12    5   15 1   
    13    6    7 1   
    14    6   16 1   
    15    6   17 1   
    16    7    8 1   
    17    7   18 1   
    18    7   19 1   
    19    8    9 1   
    20    8   20 1   
    21    8   21 1   
    22    9   22 1   
    23    9   23 1   
    24    9   24 1   
@<TRIPOS>SUBSTRUCTURE
     1 3OM         1 TEMP              0 ****  ****    0 ROOT
