@<TRIPOS>MOLECULE
molecule
   74    74     1     0     0
SMALL
bcc


@<TRIPOS>ATOM
      1 O1           0.0000     0.0000     0.0000 oh         1 3ON      -0.608800
      2 C5           1.4500     0.0000     0.0000 c3         1 3ON       0.157100
      3 C4           2.0520     0.0000     1.4330 c3         1 3ON      -0.043200
      4 C3           3.4720     0.5420     1.4220 c2         1 3ON      -0.117400
      5 C11          4.6000    -0.3160     1.8700 c3         1 3ON      -0.047900
      6 C6           2.0080     1.1220    -0.9220 c3         1 3ON      -0.079400
      7 C1           3.0990     2.1310    -0.4270 c3         1 3ON      -0.001800
      8 C9           4.1820     2.1800    -1.5430 c3         1 3ON      -0.082600
      9 C8           2.3960     3.5010    -0.3190 c3         1 3ON      -0.082600
     10 C2           3.6930     1.7840     0.9780 ce         1 3ON      -0.100200
     11 C7           4.4070     2.7590     1.8810 ce         1 3ON      -0.085000
     12 C12          4.9310     3.9000     1.4190 cf         1 3ON      -0.146000
     13 C13          5.6140     4.9330     2.2210 cf         1 3ON      -0.047200
     14 C14          5.5970     4.7920     3.6960 c3         1 3ON      -0.068900
     15 C15          6.1870     6.0100     1.6650 ce         1 3ON      -0.160000
     16 C16          6.8640     7.0860     2.4060 ce         1 3ON      -0.073000
     17 C17          7.1750     8.2180     1.7440 cf         1 3ON      -0.228000
     18 C18          7.8610     9.3720     2.3620 cf         1 3ON       0.085800
     19 C19          8.6110     9.0470     3.5890 c3         1 3ON      -0.074900
     20 C20          7.8740    10.6680     1.9080 ce         1 3ON      -0.500000
     21 C21          7.2180    11.1180     0.6700 ce         1 3ON      -0.141000
     22 C22          7.9360    12.0280     0.0140 cf         1 3ON      -0.070000
     23 C23          7.7610    12.6910    -1.2820 cf         1 3ON      -0.112000
     24 C24          8.4940    13.7570    -1.7090 ce         1 3ON      -0.087200
     25 C26          8.2770    14.2960    -3.0780 c3         1 3ON      -0.069900
     26 C25          9.3800    14.6480    -0.9440 ce         1 3ON      -0.065000
     27 C27         10.0340    15.5920    -1.6170 cf         1 3ON      -0.177000
     28 C28         10.9310    16.5760    -0.9900 cf         1 3ON      -0.482000
     29 C29         11.6070    17.4880    -1.7390 c2         1 3ON       0.047600
     30 C30         11.4540    17.4850    -3.2500 c3         1 3ON      -0.128900
     31 C31         12.5340    18.5230    -1.1190 c3         1 3ON       0.172600
     32 O2          12.7570    19.5680    -2.0940 oh         1 3ON      -0.623800
     33 H1          -0.3140    -0.8450    -0.2770 ho         1 3ON       0.401000
     34 H5           1.7560    -0.9360    -0.4510 h1         1 3ON       0.016700
     35 H4C1         2.0610    -1.0140     1.8150 hc         1 3ON       0.058200
     36 H4C2         1.4400     0.6220     2.0750 hc         1 3ON       0.058200
     37 H111         4.4920    -1.3060     1.4440 hc         1 3ON       0.045367
     38 H112         5.5370     0.1180     1.5440 hc         1 3ON       0.045367
     39 H113         4.5920    -0.3860     2.9510 hc         1 3ON       0.045367
     40 H6C1         2.4130     0.6320    -1.7990 hc         1 3ON       0.049700
     41 H6C2         1.1590     1.7130    -1.2420 hc         1 3ON       0.049700
     42 H9C1         4.8410     1.3250    -1.4440 hc         1 3ON       0.038200
     43 H9C2         3.7020     2.1550    -2.5130 hc         1 3ON       0.038200
     44 H9C3         4.7580     3.0920    -1.4480 hc         1 3ON       0.038200
     45 H8C1         3.1250     4.2920    -0.4510 hc         1 3ON       0.038200
     46 H8C2         1.9340     3.5940     0.6560 hc         1 3ON       0.038200
     47 H8C3         1.6370     3.5780    -1.0880 hc         1 3ON       0.038200
     48 H7           4.4710     2.5390     2.9400 ha         1 3ON       0.133000
     49 H12          4.8280     4.1050     0.3610 ha         1 3ON       0.128000
     50 H141         6.5650     4.4480     4.0380 hc         1 3ON       0.047033
     51 H142         5.3740     5.7510     4.1480 hc         1 3ON       0.047033
     52 H143         4.8380     4.0740     3.9810 hc         1 3ON       0.047033
     53 H15          6.1390     6.1120     0.5870 ha         1 3ON       0.126000
     54 H16          7.1130     6.9730     3.4540 ha         1 3ON       0.135000
     55 H17          6.9150     8.2900     0.6950 ha         1 3ON       0.129000
     56 H191         9.2310     9.8910     3.8680 hc         1 3ON       0.057700
     57 H192         7.9150     8.8300     4.3910 hc         1 3ON       0.057700
     58 H193         9.2380     8.1820     3.4110 hc         1 3ON       0.057700
     59 H20          6.7990    10.6880     1.7740 ha         1 3ON       0.312000
     60 H21          6.3020    10.6960     0.2750 ha         1 3ON       0.088000
     61 H22          8.8720    12.2970     0.4890 ha         1 3ON       0.148000
     62 H23          7.0320    12.2660    -1.9620 ha         1 3ON       0.123000
     63 H261         9.1980    14.2300    -3.6440 hc         1 3ON       0.045033
     64 H262         7.9670    15.3320    -3.0130 hc         1 3ON       0.045033
     65 H263         7.5060    13.7200    -3.5750 hc         1 3ON       0.045033
     66 H25          9.4810    14.5570     0.1310 ha         1 3ON       0.162000
     67 H27          9.8850    15.6590    -2.6880 ha         1 3ON       0.098000
     68 H28         11.2740    15.6980    -1.5250 ha         1 3ON       0.317000
     69 H301        11.6710    16.4950    -3.6330 hc         1 3ON       0.056367
     70 H302        12.1420    18.1990    -3.6840 hc         1 3ON       0.056367
     71 H303        10.4380    17.7580    -3.5100 hc         1 3ON       0.056367
     72 H311        13.4780    18.0590    -0.8580 h1         1 3ON       0.056700
     73 H312        12.0740    18.9420    -0.2320 h1         1 3ON       0.056700
     74 H2          13.1950    20.2940    -1.6830 ho         1 3ON       0.406000
@<TRIPOS>BOND
     1     1     2 1   
     2     1    33 1   
     3     2     3 1   
     4     2     6 1   
     5     2    34 1   
     6     3     4 1   
     7     3    35 1   
     8     3    36 1   
     9     4     5 1   
    10     4    10 2   
    11     5    37 1   
    12     5    38 1   
    13     5    39 1   
    14     6     7 1   
    15     6    40 1   
    16     6    41 1   
    17     7     8 1   
    18     7     9 1   
    19     7    10 1   
    20     8    42 1   
    21     8    43 1   
    22     8    44 1   
    23     9    45 1   
    24     9    46 1   
    25     9    47 1   
    26    10    11 1   
    27    11    12 2   
    28    11    48 1   
    29    12    13 1   
    30    12    49 1   
    31    13    14 1   
    32    13    15 2   
    33    14    50 1   
    34    14    51 1   
    35    14    52 1   
    36    15    16 1   
    37    15    53 1   
    38    16    17 2   
    39    16    54 1   
    40    17    18 1   
    41    17    55 1   
    42    18    19 1   
    43    18    20 2   
    44    19    56 1   
    45    19    57 1   
    46    19    58 1   
    47    20    21 1   
    48    20    59 1   
    49    21    22 2   
    50    21    60 1   
    51    22    23 1   
    52    22    61 1   
    53    23    24 2   
    54    23    62 1   
    55    24    25 1   
    56    24    26 1   
    57    25    63 1   
    58    25    64 1   
    59    25    65 1   
    60    26    27 2   
    61    26    66 1   
    62    27    28 1   
    63    27    67 1   
    64    28    29 2   
    65    28    68 1   
    66    29    30 1   
    67    29    31 1   
    68    30    69 1   
    69    30    70 1   
    70    30    71 1   
    71    31    32 1   
    72    31    72 1   
    73    31    73 1   
    74    32    74 1   
@<TRIPOS>SUBSTRUCTURE
     1 3ON         1 TEMP              0 ****  ****    0 ROOT
