@<TRIPOS>MOLECULE
3ON
   74    74     1     0     0
SMALL
bcc


@<TRIPOS>ATOM
      1 O1          2.8140    5.5970   -3.5230 oh        1 3ON     -0.602800
      2 C5          3.5050    5.5480   -2.2790 c3        1 3ON      0.143100
      3 C4          4.1090    4.1520   -2.1810 c3        1 3ON     -0.041200
      4 C3          4.5690    3.8300   -0.8030 c2        1 3ON     -0.099400
      5 C11         5.4740    2.6550   -0.7330 c3        1 3ON     -0.060900
      6 C6          2.5560    5.8040   -1.1170 c3        1 3ON     -0.106400
      7 C1          3.2680    5.7160    0.2330 c3        1 3ON      0.000200
      8 C9          4.0710    6.9910    0.4760 c3        1 3ON     -0.087100
      9 C8          2.2030    5.5920    1.3200 c3        1 3ON     -0.087100
     10 C2          4.1910    4.5250    0.2880 ce        1 3ON     -0.092200
     11 C7          4.6330    4.1410    1.6300 ce        1 3ON     -0.108000
     12 C12         5.7330    4.6230    2.2250 cf        1 3ON     -0.135000
     13 C13         6.1690    4.2450    3.5610 cf        1 3ON     -0.065200
     14 C14         5.7660    2.8960    4.0380 c3        1 3ON     -0.062900
     15 C15         6.9090    5.0520    4.3520 ce        1 3ON     -0.138000
     16 C16         7.3310    6.3930    4.0180 ce        1 3ON     -0.120000
     17 C17         8.0920    7.1370    4.8420 cf        1 3ON     -0.130000
     18 C18         8.5300    8.4940    4.5660 cf        1 3ON     -0.070200
     19 C19         8.5400    9.3890    5.7550 c3        1 3ON     -0.060900
     20 C20         8.9230    8.9550    3.3590 ce        1 3ON     -0.134000
     21 C21         9.0320    8.1610    2.1590 ce        1 3ON     -0.124000
     22 C22         9.0480    8.6400    0.9000 cf        1 3ON     -0.130000
     23 C23         8.8870   10.0250    0.5380 cf        1 3ON     -0.129000
     24 C24         9.1080   10.5550   -0.6880 ce        1 3ON     -0.068200
     25 C26         9.5970    9.7730   -1.8500 c3        1 3ON     -0.062900
     26 C25         8.8560   11.9730   -0.9000 ce        1 3ON     -0.126000
     27 C27         8.8550   12.5810   -2.1010 cf        1 3ON     -0.123000
     28 C28         8.5890   13.9930   -2.2550 cf        1 3ON     -0.145000
     29 C29         8.5680   14.6360   -3.4390 c2        1 3ON     -0.094400
     30 C30         8.7940   13.9680   -4.7410 c3        1 3ON     -0.059900
     31 C31         8.3420   16.1160   -3.4720 c3        1 3ON      0.165600
     32 O2          7.4870   16.4290   -4.5640 oh        1 3ON     -0.595800
     33 H1          2.3800    6.4570   -3.5650 ho        1 3ON      0.399000
     34 H5          4.3230    6.3230   -2.2860 h1        1 3ON      0.037700
     35 H4C1        3.3400    3.3970   -2.5000 hc        1 3ON      0.063700
     36 H4C2        4.9680    4.0730   -2.9000 hc        1 3ON      0.063700
     37 H111        5.0570    1.8120   -1.3380 hc        1 3ON      0.044367
     38 H112        5.6150    2.3020    0.3180 hc        1 3ON      0.044367
     39 H113        6.4770    2.9230   -1.1520 hc        1 3ON      0.044367
     40 H6C1        2.0920    6.8190   -1.2260 hc        1 3ON      0.049200
     41 H6C2        1.7280    5.0480   -1.1570 hc        1 3ON      0.049200
     42 H9C1        4.6110    6.9230    1.4520 hc        1 3ON      0.038533
     43 H9C2        3.3870    7.8730    0.5060 hc        1 3ON      0.038533
     44 H9C3        4.8210    7.1440   -0.3350 hc        1 3ON      0.038533
     45 H8C1        1.4700    6.4290    1.2300 hc        1 3ON      0.038533
     46 H8C2        2.6740    5.6380    2.3320 hc        1 3ON      0.038533
     47 H8C3        1.6580    4.6240    1.2230 hc        1 3ON      0.038533
     48 H7          3.9720    3.4160    2.1390 ha        1 3ON      0.129000
     49 H12         6.3730    5.3520    1.6980 ha        1 3ON      0.132000
     50 H141        5.9260    2.1350    3.2340 hc        1 3ON      0.044367
     51 H142        4.6790    2.8960    4.3070 hc        1 3ON      0.044367
     52 H143        6.3500    2.5870    4.9390 hc        1 3ON      0.044367
     53 H15         7.2240    4.6860    5.3460 ha        1 3ON      0.123000
     54 H16         6.9830    6.8060    3.0550 ha        1 3ON      0.134000
     55 H17         8.4050    6.7410    5.8250 ha        1 3ON      0.125000
     56 H191        8.8400   10.4300    5.4850 hc        1 3ON      0.044033
     57 H192        9.2610    9.0010    6.5190 hc        1 3ON      0.044033
     58 H193        7.5240    9.4220    6.2200 hc        1 3ON      0.044033
     59 H20         9.2250   10.0140    3.2650 ha        1 3ON      0.126000
     60 H21         9.1310    7.0700    2.3160 ha        1 3ON      0.130000
     61 H22         9.1720    7.9220    0.0690 ha        1 3ON      0.124000
     62 H23         8.5380   10.6920    1.3480 ha        1 3ON      0.123000
     63 H261        8.7650    9.6170   -2.5820 hc        1 3ON      0.044700
     64 H262       10.4220   10.3250   -2.3680 hc        1 3ON      0.044700
     65 H263        9.9930    8.7740   -1.5490 hc        1 3ON      0.044700
     66 H25         8.6440   12.5580    0.0130 ha        1 3ON      0.121000
     67 H27         9.0540   12.0150   -3.0270 ha        1 3ON      0.128000
     68 H28         8.3990   14.5530   -1.3220 ha        1 3ON      0.121000
     69 H301        8.6510   14.6820   -5.5900 hc        1 3ON      0.049700
     70 H302        9.8340   13.5570   -4.7920 hc        1 3ON      0.049700
     71 H303        8.0750   13.1210   -4.8740 hc        1 3ON      0.049700
     72 H311        7.8760   16.4760   -2.5140 h1        1 3ON      0.028700
     73 H312        9.3320   16.6350   -3.6110 h1        1 3ON      0.028700
     74 H2          7.3580   17.3840   -4.5380 ho        1 3ON      0.401000
@<TRIPOS>BOND
     1    1    2 1   
     2    1   33 1   
     3    2    3 1   
     4    2    6 1   
     5    2   34 1   
     6    3    4 1   
     7    3   35 1   
     8    3   36 1   
     9    4    5 1   
    10    4   10 2   
    11    5   37 1   
    12    5   38 1   
    13    5   39 1   
    14    6    7 1   
    15    6   40 1   
    16    6   41 1   
    17    7    8 1   
    18    7    9 1   
    19    7   10 1   
    20    8   42 1   
    21    8   43 1   
    22    8   44 1   
    23    9   45 1   
    24    9   46 1   
    25    9   47 1   
    26   10   11 1   
    27   11   12 2   
    28   11   48 1   
    29   12   13 1   
    30   12   49 1   
    31   13   14 1   
    32   13   15 2   
    33   14   50 1   
    34   14   51 1   
    35   14   52 1   
    36   15   16 1   
    37   15   53 1   
    38   16   17 2   
    39   16   54 1   
    40   17   18 1   
    41   17   55 1   
    42   18   19 1   
    43   18   20 2   
    44   19   56 1   
    45   19   57 1   
    46   19   58 1   
    47   20   21 1   
    48   20   59 1   
    49   21   22 2   
    50   21   60 1   
    51   22   23 1   
    52   22   61 1   
    53   23   24 2   
    54   23   62 1   
    55   24   25 1   
    56   24   26 1   
    57   25   63 1   
    58   25   64 1   
    59   25   65 1   
    60   26   27 2   
    61   26   66 1   
    62   27   28 1   
    63   27   67 1   
    64   28   29 2   
    65   28   68 1   
    66   29   30 1   
    67   29   31 1   
    68   30   69 1   
    69   30   70 1   
    70   30   71 1   
    71   31   32 1   
    72   31   72 1   
    73   31   73 1   
    74   32   74 1   
@<TRIPOS>SUBSTRUCTURE
     1 3ON         1 TEMP              0 ****  ****    0 ROOT
