@<TRIPOS>MOLECULE
3OO
   39    39     1     0     0
SMALL
bcc


@<TRIPOS>ATOM
      1 Br           0.0000     0.0000     0.0000 br         1 3OO      -0.125100
      2 C12          1.8910     0.0000     0.0000 ca         1 3OO       0.024100
      3 C11          2.5820     0.0000     1.2000 ca         1 3OO      -0.061000
      4 C10          3.9650    -0.0050     1.2080 ca         1 3OO      -0.108000
      5 C9           4.6650    -0.0110     0.0200 ca         1 3OO      -0.028000
      6 C13          2.5800    -0.0060    -1.1960 ca         1 3OO      -0.069000
      7 C8           3.9760    -0.0120    -1.1940 ca         1 3OO      -0.150600
      8 C7           4.7200    -0.0190    -2.4700 c          1 3OO       0.595700
      9 O            5.9360    -0.0220    -2.4660 o          1 3OO      -0.648100
     10 N1           4.0510    -0.0200    -3.6400 ns         1 3OO      -0.198900
     11 C6           4.7890    -0.0250    -4.9060 c3         1 3OO       0.052000
     12 C5           3.8000    -0.0250    -6.0730 c3         1 3OO      -0.043400
     13 C4           4.5700    -0.0310    -7.3950 c3         1 3OO       0.132800
     14 N            3.6200    -0.0310    -8.5150 n7         1 3OO      -0.581200
     15 C1           4.3260    -0.0370    -9.8040 c3         1 3OO       0.099200
     16 C3           5.2080     1.2080    -9.9080 c3         1 3OO      -0.008433
     17 C2           5.2000    -1.2900    -9.9010 c3         1 3OO      -0.008433
     18 C            3.3060    -0.0370   -10.9440 c3         1 3OO      -0.008433
     19 H1           2.0360     0.0040     2.1360 ha         1 3OO       0.116000
     20 H2           4.5000    -0.0050     2.1500 ha         1 3OO       0.111000
     21 H3           5.7480    -0.0150     0.0290 ha         1 3OO       0.130000
     22 H4           2.0390    -0.0070    -2.1350 ha         1 3OO       0.114000
     23 H5           3.0510    -0.0060    -3.6450 hn         1 3OO       0.180500
     24 H6           5.4150     0.8570    -4.9630 h1         1 3OO       0.027700
     25 H7           5.4090    -0.9120    -4.9580 h1         1 3OO       0.027700
     26 H8           3.1740    -0.9070    -6.0160 hc         1 3OO       0.020700
     27 H9           3.1800     0.8620    -6.0200 hc         1 3OO       0.020700
     28 H10          5.1960     0.8520    -7.4520 h1         1 3OO       0.018200
     29 H11          5.1900    -0.9170    -7.4470 h1         1 3OO       0.018200
     30 H12          3.0320    -0.8380    -8.4540 hn         1 3OO       0.256800
     31 H14          4.6980     2.0510    -9.4560 hc         1 3OO       0.010367
     32 H15          5.4060     1.4250   -10.9510 hc         1 3OO       0.010367
     33 H16          6.1440     1.0330    -9.3920 hc         1 3OO       0.010367
     34 H17          5.4280    -1.4910   -10.9410 hc         1 3OO       0.010367
     35 H18          4.6690    -2.1340    -9.4780 hc         1 3OO       0.010367
     36 H19          6.1210    -1.1310    -9.3530 hc         1 3OO       0.010367
     37 H20          2.6680     0.8340   -10.8570 hc         1 3OO       0.010367
     38 H21          2.7020    -0.9340   -10.8890 hc         1 3OO       0.010367
     39 H22          3.8260    -0.0090   -11.8940 hc         1 3OO       0.010367
@<TRIPOS>BOND
     1     1     2 1   
     2     2     3 ar  
     3     2     6 ar  
     4     3     4 ar  
     5     3    19 1   
     6     4     5 ar  
     7     4    20 1   
     8     5     7 ar  
     9     5    21 1   
    10     6     7 ar  
    11     6    22 1   
    12     7     8 1   
    13     8     9 2   
    14     8    10 1   
    15    10    11 1   
    16    10    23 1   
    17    11    12 1   
    18    11    24 1   
    19    11    25 1   
    20    12    13 1   
    21    12    26 1   
    22    12    27 1   
    23    13    14 1   
    24    13    28 1   
    25    13    29 1   
    26    14    15 1   
    27    14    30 1   
    28    15    16 1   
    29    15    17 1   
    30    15    18 1   
    31    16    31 1   
    32    16    32 1   
    33    16    33 1   
    34    17    34 1   
    35    17    35 1   
    36    17    36 1   
    37    18    37 1   
    38    18    38 1   
    39    18    39 1   
@<TRIPOS>SUBSTRUCTURE
     1 3OO         1 TEMP              0 ****  ****    0 ROOT
