@<TRIPOS>MOLECULE
3OP
   21    22     1     0     0
SMALL
bcc


@<TRIPOS>ATOM
      1 C4          0.2250    0.2750    0.0010 ca        1 3OP     -0.017200
      2 C5          0.7560   -0.8650   -2.6150 ca        1 3OP     -0.137500
      3 C6          1.6050    0.1100    0.1710 ca        1 3OP     -0.137500
      4 C7          1.2100   -1.1300   -3.9080 ca        1 3OP     -0.221300
      5 C8          2.0640   -0.2990    1.4240 ca        1 3OP     -0.221300
      6 C9          1.1000   -0.1230   -4.8840 ca        1 3OP      0.375200
      7 C10         1.1270   -0.5220    2.4490 ca        1 3OP      0.375200
      8 N12        -0.2030   -0.3620    2.2920 nb        1 3OP     -0.644000
      9 C2         -0.6500    0.0270    1.0880 ca        1 3OP      0.391200
     10 O13        -0.3670    0.7700   -1.1530 os        1 3OP     -0.230200
     11 C3          0.2140    0.4000   -2.3580 ca        1 3OP     -0.017200
     12 N11         0.5750    1.0960   -4.6430 nb        1 3OP     -0.644000
     13 C1          0.1410    1.3570   -3.4000 ca        1 3OP      0.391200
     14 H2          2.2990    0.2970   -0.6610 ha        1 3OP      0.153000
     15 H3          1.6410   -2.1070   -4.1620 ha        1 3OP      0.148000
     16 H4          3.1370   -0.4400    1.6090 ha        1 3OP      0.148000
     17 H5          1.4490   -0.2970   -5.9180 h4        1 3OP      0.027100
     18 H6          1.4530   -0.8470    3.4530 h4        1 3OP      0.027100
     19 H7         -1.7400    0.1630    0.9730 h4        1 3OP      0.041100
     20 H8         -0.2940    2.3550   -3.2170 h4        1 3OP      0.041100
     21 H1          0.8210   -1.6200   -1.8190 ha        1 3OP      0.153000
@<TRIPOS>BOND
     1    1    3 ar  
     2    1    9 ar  
     3    1   10 1   
     4    2    4 ar  
     5    2   11 ar  
     6    2   21 1   
     7    3    5 ar  
     8    3   14 1   
     9    4    6 ar  
    10    4   15 1   
    11    5    7 ar  
    12    5   16 1   
    13    6   12 ar  
    14    6   17 1   
    15    7    8 ar  
    16    7   18 1   
    17    8    9 ar  
    18    9   19 1   
    19   10   11 1   
    20   11   13 ar  
    21   12   13 ar  
    22   13   20 1   
@<TRIPOS>SUBSTRUCTURE
     1 3OP         1 TEMP              0 ****  ****    0 ROOT
