@<TRIPOS>MOLECULE
molecule
   21    22     1     0     0
SMALL
bcc


@<TRIPOS>ATOM
      1 C4           0.0000     0.0000     0.0000 ca         1 3OP      -0.011200
      2 C5           0.3870    -1.1950    -2.9330 ca         1 3OP      -0.139500
      3 C6           1.3910     0.0000     0.0000 ca         1 3OP      -0.139500
      4 C7           1.1060    -1.1430    -4.1160 ca         1 3OP      -0.230800
      5 C8           2.0500     0.0000     1.2180 ca         1 3OP      -0.230800
      6 C9           1.4340     0.0880    -4.6540 ca         1 3OP       0.401200
      7 C10          1.3100     0.0010     2.3860 ca         1 3OP       0.401200
      8 N12         -0.0090     0.0010     2.3510 nb         1 3OP      -0.666500
      9 C2          -0.6730     0.0000     1.2130 ca         1 3OP       0.406700
     10 O13         -0.6900     0.0050    -1.1710 os         1 3OP      -0.238200
     11 C3           0.0210     0.0040    -2.3290 ca         1 3OP      -0.011200
     12 N11          1.0710     1.2060    -4.0570 nb         1 3OP      -0.666500
     13 C1           0.3920     1.2000    -2.9270 ca         1 3OP       0.406700
     14 H2           1.9460    -0.0010    -0.9310 ha         1 3OP       0.151000
     15 H3           1.4080    -2.0560    -4.6140 ha         1 3OP       0.143000
     16 H4           3.1330     0.0000     1.2560 ha         1 3OP       0.143000
     17 H5           1.9940     0.1340    -5.5800 h4         1 3OP       0.028100
     18 H6           1.8200     0.0010     3.3420 h4         1 3OP       0.028100
     19 H7          -1.7570    -0.0000     1.2250 h4         1 3OP       0.037600
     20 H8           0.1120     2.1400    -2.4660 h4         1 3OP       0.037600
     21 H1           0.1160    -2.1450    -2.4900 ha         1 3OP       0.151000
@<TRIPOS>BOND
     1     4     6 ar  
     2     4     2 ar  
     3     6    12 ar  
     4     2    11 ar  
     5    12    13 ar  
     6    11    13 ar  
     7    11    10 1   
     8     9     8 ar  
     9     9     1 ar  
    10     8     7 ar  
    11    10     1 1   
    12     1     3 ar  
    13     7     5 ar  
    14     3     5 ar  
    15     2    21 1   
    16     3    14 1   
    17     4    15 1   
    18     5    16 1   
    19     6    17 1   
    20     7    18 1   
    21     9    19 1   
    22    13    20 1   
@<TRIPOS>SUBSTRUCTURE
     1 3OP         1 TEMP              0 ****  ****    0 ROOT
