@<TRIPOS>MOLECULE
3OP
   21    22     1     0     0
SMALL
bcc


@<TRIPOS>ATOM
      1 C4          0.2260    0.2760    0.0010 ca        1 3OP     -0.017200
      2 C5          0.7570   -0.8640   -2.6140 ca        1 3OP     -0.137500
      3 C6          1.6050    0.1110    0.1710 ca        1 3OP     -0.137500
      4 C7          1.2100   -1.1300   -3.9070 ca        1 3OP     -0.221300
      5 C8          2.0630   -0.2990    1.4240 ca        1 3OP     -0.221300
      6 C9          1.0990   -0.1240   -4.8840 ca        1 3OP      0.375200
      7 C10         1.1260   -0.5230    2.4480 ca        1 3OP      0.375200
      8 N12        -0.2030   -0.3630    2.2910 nb        1 3OP     -0.644000
      9 C2         -0.6500    0.0270    1.0870 ca        1 3OP      0.391200
     10 O13        -0.3650    0.7730   -1.1530 os        1 3OP     -0.230200
     11 C3          0.2140    0.4010   -2.3580 ca        1 3OP     -0.017200
     12 N11         0.5740    1.0950   -4.6440 nb        1 3OP     -0.644000
     13 C1          0.1410    1.3570   -3.4010 ca        1 3OP      0.391200
     14 H2          2.3000    0.2990   -0.6590 ha        1 3OP      0.153000
     15 H3          1.6410   -2.1070   -4.1610 ha        1 3OP      0.148000
     16 H4          3.1360   -0.4400    1.6100 ha        1 3OP      0.148000
     17 H5          1.4470   -0.2980   -5.9180 h4        1 3OP      0.027100
     18 H6          1.4520   -0.8490    3.4530 h4        1 3OP      0.027100
     19 H7         -1.7400    0.1630    0.9720 h4        1 3OP      0.041100
     20 H8         -0.2940    2.3550   -3.2180 h4        1 3OP      0.041100
     21 H1          0.8230   -1.6190   -1.8180 ha        1 3OP      0.153000
@<TRIPOS>BOND
     1    1    3 ar  
     2    1    9 ar  
     3    1   10 1   
     4    2    4 ar  
     5    2   11 ar  
     6    2   21 1   
     7    3    5 ar  
     8    3   14 1   
     9    4    6 ar  
    10    4   15 1   
    11    5    7 ar  
    12    5   16 1   
    13    6   12 ar  
    14    6   17 1   
    15    7    8 ar  
    16    7   18 1   
    17    8    9 ar  
    18    9   19 1   
    19   10   11 1   
    20   11   13 ar  
    21   12   13 ar  
    22   13   20 1   
@<TRIPOS>SUBSTRUCTURE
     1 3OP         1 TEMP              0 ****  ****    0 ROOT
