@<TRIPOS>MOLECULE
molecule
   42    43     1     0     0
SMALL
bcc


@<TRIPOS>ATOM
      1 C4           0.0000     0.0000     0.0000 ca         1 3OQ       0.042000
      2 C5          -0.7200    -0.0000    -1.2370 cg         1 3OQ       0.226800
      3 C7           1.3970     0.0000     0.0000 ca         1 3OQ      -0.112000
      4 C8           2.0820     0.0000     1.1950 ca         1 3OQ       0.013700
      5 C10          4.0990    -1.4270     1.4070 c3         1 3OQ       0.206900
      6 C15          2.1830     1.6340     4.5750 ca         1 3OQ      -0.286500
      7 C17          1.1300     3.2330     6.0120 ca         1 3OQ      -0.117000
      8 C21          0.4990     5.9110     6.5240 c3         1 3OQ      -0.133100
      9 C22          2.8230     5.6950     7.4180 c3         1 3OQ       0.631900
     10 C26          3.0090     3.8790     4.6760 ca         1 3OQ      -0.117000
     11 F23          4.1510     5.4040     7.0880 f          1 3OQ      -0.215967
     12 F24          2.3690     4.7820     8.3760 f          1 3OQ      -0.215967
     13 F25          2.7450     6.9920     7.9360 f          1 3OQ      -0.215967
     14 C19          1.9520     5.5920     6.1640 c3         1 3OQ       0.150100
     15 O20          2.4150     6.5240     5.1850 oh         1 3OQ      -0.577800
     16 C18          2.0360     4.1950     5.6070 ca         1 3OQ      -0.078300
     17 C27          3.0860     2.5970     4.1650 ca         1 3OQ      -0.033500
     18 C16          1.2030     1.9530     5.4960 ca         1 3OQ      -0.033500
     19 O13          3.6410    -0.2200     3.5890 o          1 3OQ      -0.617300
     20 O14          1.5460    -0.8310     4.8070 o          1 3OQ      -0.617300
     21 C1           1.3920     0.0010     2.3940 ca         1 3OQ      -0.284500
     22 C2           0.0080     0.0020     2.4020 ca         1 3OQ      -0.028000
     23 C3          -0.6910     0.0070     1.2140 ca         1 3OQ      -0.119000
     24 N6          -1.3070    -0.0090    -2.2100 n1         1 3OQ      -0.337800
     25 C9           3.5900    -0.0000     1.1970 c3         1 3OQ      -0.102100
     26 F11          5.4930    -1.4120     1.5340 f          1 3OQ      -0.240300
     27 H1           1.9380     0.0030    -0.9380 ha         1 3OQ       0.153000
     28 H2           3.4890    -1.9230     2.1520 h1         1 3OQ       0.037200
     29 H3           4.0410    -1.9720     0.4720 h1         1 3OQ       0.037200
     30 H4           0.3680     3.4800     6.7410 ha         1 3OQ       0.153000
     31 H5           0.2410     5.4180     7.4540 hc         1 3OQ       0.063367
     32 H6           0.3820     6.9820     6.6380 hc         1 3OQ       0.063367
     33 H7          -0.1540     5.5580     5.7350 hc         1 3OQ       0.063367
     34 H8           3.7190     4.6330     4.3590 ha         1 3OQ       0.153000
     35 H9           1.6830     6.8450     4.6850 ho         1 3OQ       0.423000
     36 H10          3.8540     2.3480     3.4430 ha         1 3OQ       0.154000
     37 H11          0.4960     1.1990     5.8180 ha         1 3OQ       0.154000
     38 H12         -0.5280     0.0020     3.3430 ha         1 3OQ       0.152000
     39 H13         -1.7750     0.0150     1.2200 ha         1 3OQ       0.150000
     40 H14          3.9500     0.6120     2.0150 hc         1 3OQ       0.083200
     41 H15          3.9520     0.4020     0.2590 hc         1 3OQ       0.083200
     42 S12          2.2770     0.0020     3.9180 sy         1 3OQ       1.285600
@<TRIPOS>BOND
     1    15    14 1
     2     8    14 1
     3    14    16 1
     4    14     9 1
     5    11     9 1
     6    10    16 ar
     7    10    17 ar
     8    16     7 ar
     9     9    12 1
    10     9    13 1
    11    17     6 ar
    12     7    18 ar
    13    20    42 2
    14     6    18 ar
    15     6    42 1
    16    42    21 1
    17    42    19 2
    18    22    21 ar
    19    22    23 ar
    20    21     4 ar
    21    23     1 ar
    22     4    25 1
    23     4     3 ar
    24     1     3 ar
    25     1     2 1
    26     5    25 1
    27     5    26 1
    28     2    24 3
    29     3    27 1
    30     5    28 1
    31     5    29 1
    32     7    30 1
    33     8    31 1
    34     8    32 1
    35     8    33 1
    36    10    34 1
    37    15    35 1
    38    17    36 1
    39    18    37 1
    40    22    38 1
    41    23    39 1
    42    25    40 1
    43    25    41 1
@<TRIPOS>SUBSTRUCTURE
     1 3OQ         1 TEMP              0 ****  ****    0 ROOT
