@<TRIPOS>MOLECULE
3OQ
   42    43     1     0     0
SMALL
bcc


@<TRIPOS>ATOM
      1 C4           0.0000     0.0000     0.0000 ca         1 3OQ       0.088000
      2 C5          -0.7200    -0.0000    -1.2370 cg         1 3OQ       0.213800
      3 C7           1.3970     0.0000     0.0000 ca         1 3OQ      -0.102000
      4 C8           2.0820     0.0000     1.1950 ca         1 3OQ       0.024700
      5 C10          4.0990    -1.4270     1.4070 c3         1 3OQ       0.254900
      6 C15          2.1830     1.6340     4.5750 ca         1 3OQ      -0.133500
      7 C17          1.1300     3.2330     6.0120 ca         1 3OQ      -0.100000
      8 C21          0.4990     5.9110     6.5240 c3         1 3OQ      -0.046100
      9 C22          2.8230     5.6950     7.4180 c3         1 3OQ       0.580900
     10 C26          3.0090     3.8790     4.6760 ca         1 3OQ      -0.100000
     11 F23          4.1510     5.4040     7.0880 f          1 3OQ      -0.200967
     12 F24          2.3690     4.7820     8.3760 f          1 3OQ      -0.200967
     13 F25          2.7450     6.9920     7.9360 f          1 3OQ      -0.200967
     14 C19          1.9520     5.5920     6.1640 c3         1 3OQ       0.169100
     15 O20          2.4150     6.5240     5.1850 oh         1 3OQ      -0.563800
     16 C18          2.0360     4.1950     5.6070 ca         1 3OQ      -0.095300
     17 C27          3.0860     2.5970     4.1650 ca         1 3OQ      -0.001500
     18 C16          1.2030     1.9530     5.4960 ca         1 3OQ      -0.001500
     19 O13          3.6410    -0.2200     3.5890 o          1 3OQ      -0.584300
     20 O14          1.5460    -0.8310     4.8070 o          1 3OQ      -0.584300
     21 C1           1.3920     0.0010     2.3940 ca         1 3OQ      -0.134500
     22 C2           0.0080     0.0020     2.4020 ca         1 3OQ       0.008000
     23 C3          -0.6910     0.0070     1.2140 ca         1 3OQ      -0.110000
     24 N6          -1.3070    -0.0090    -2.2100 n1         1 3OQ      -0.354800
     25 C9           3.5900    -0.0000     1.1970 c3         1 3OQ      -0.066100
     26 F11          5.4930    -1.4120     1.5340 f          1 3OQ      -0.230300
     27 H1           1.9380     0.0030    -0.9380 ha         1 3OQ       0.126000
     28 H2           3.4890    -1.9230     2.1520 h1         1 3OQ       0.005200
     29 H3           4.0410    -1.9720     0.4720 h1         1 3OQ       0.005200
     30 H4           0.3680     3.4800     6.7410 ha         1 3OQ       0.127500
     31 H5           0.2410     5.4180     7.4540 hc         1 3OQ       0.031033
     32 H6           0.3820     6.9820     6.6380 hc         1 3OQ       0.031033
     33 H7          -0.1540     5.5580     5.7350 hc         1 3OQ       0.031033
     34 H8           3.7190     4.6330     4.3590 ha         1 3OQ       0.127500
     35 H9           1.6830     6.8450     4.6850 ho         1 3OQ       0.412000
     36 H10          3.8540     2.3480     3.4430 ha         1 3OQ       0.126000
     37 H11          0.4960     1.1990     5.8180 ha         1 3OQ       0.126000
     38 H12         -0.5280     0.0020     3.3430 ha         1 3OQ       0.121000
     39 H13         -1.7750     0.0150     1.2200 ha         1 3OQ       0.120000
     40 H14          3.9500     0.6120     2.0150 hc         1 3OQ       0.060700
     41 H15          3.9520     0.4020     0.2590 hc         1 3OQ       0.060700
     42 S12          2.2770     0.0020     3.9180 sy         1 3OQ       0.962600
@<TRIPOS>BOND
     1     1     2 1   
     2     1     3 ar  
     3     1    23 ar  
     4     2    24 3   
     5     3     4 ar  
     6     3    27 1   
     7     4    21 ar  
     8     4    25 1   
     9     5    25 1   
    10     5    26 1   
    11     5    28 1   
    12     5    29 1   
    13     6    17 ar  
    14     6    18 ar  
    15     6    42 1   
    16     7    16 ar  
    17     7    18 ar  
    18     7    30 1   
    19     8    14 1   
    20     8    31 1   
    21     8    32 1   
    22     8    33 1   
    23     9    11 1   
    24     9    12 1   
    25     9    13 1   
    26     9    14 1   
    27    10    16 ar  
    28    10    17 ar  
    29    10    34 1   
    30    14    15 1   
    31    14    16 1   
    32    15    35 1   
    33    17    36 1   
    34    18    37 1   
    35    19    42 2   
    36    20    42 2   
    37    21    22 ar  
    38    21    42 1   
    39    22    23 ar  
    40    22    38 1   
    41    23    39 1   
    42    25    40 1   
    43    25    41 1   
@<TRIPOS>SUBSTRUCTURE
     1 3OQ         1 TEMP              0 ****  ****    0 ROOT
