@<TRIPOS>MOLECULE
3OR
   51    53     1     0     0
SMALL
bcc


@<TRIPOS>ATOM
      1 C4           0.0000     0.0000     0.0000 ca         1 3OR      -0.139600
      2 C5           1.3980     0.0000     0.0000 ca         1 3OR      -0.045000
      3 C6           2.0860     0.0000     1.1920 ca         1 3OR      -0.119300
      4 C7           3.5920    -0.0000     1.1880 c3         1 3OR       0.132300
      5 C13         -2.1010     2.3690     0.7700 ca         1 3OR      -0.157000
      6 C15         -4.1760     3.5630     0.6860 ca         1 3OR       0.173900
      7 C17         -4.8640     2.3970     0.9710 ca         1 3OR      -0.070000
      8 C20          3.9600    -2.2660     1.9220 c          1 3OR       0.604500
      9 C22          4.4050    -3.3220     2.8970 c3         1 3OR      -0.087400
     10 C24          4.7350    -1.4010     4.4420 c3         1 3OR       0.203400
     11 C26         -0.7400    -0.0070    -1.2740 c          1 3OR       0.591700
     12 C1          -0.6950    -0.0000     1.2200 ca         1 3OR       0.057600
     13 N2          -2.0860    -0.0010     1.2320 nu         1 3OR      -0.233000
     14 C3          -2.7870     1.1960     1.0500 ca         1 3OR       0.065600
     15 N8           4.0840    -0.9590     2.1800 n          1 3OR      -0.004300
     16 C9           1.3980     0.0000     2.3990 ca         1 3OR       0.108900
     17 F10          2.0840     0.0010     3.5630 f          1 3OR      -0.114900
     18 C11          0.0150     0.0000     2.4150 ca         1 3OR       0.070900
     19 F12         -0.6470     0.0010     3.5930 f          1 3OR      -0.106900
     20 C14         -2.7960     3.5500     0.5910 ca         1 3OR      -0.045000
     21 C18         -4.1740     1.2120     1.1510 ca         1 3OR       0.043900
     22 F19         -4.8460     0.0740     1.4290 f          1 3OR      -0.126900
     23 O21          3.4780    -2.6110     0.8640 o          1 3OR      -0.693500
     24 C23          5.3610    -2.7000     3.9210 c3         1 3OR      -0.072400
     25 O25          4.6650    -0.4630     3.3660 os         1 3OR      -0.277900
     26 O27         -1.9520     0.0980    -1.2740 o          1 3OR      -0.611100
     27 N28         -0.0750    -0.1280    -2.4400 ns         1 3OR      -0.064400
     28 O29         -0.7870    -0.1340    -3.6640 os         1 3OR      -0.249900
     29 C30          0.0450    -0.2690    -4.8180 c3         1 3OR       0.190400
     30 C31         -0.8260    -0.2630    -6.0770 c3         1 3OR       0.230400
     31 O32         -1.4580     1.0120    -6.2140 oh         1 3OR      -0.580800
     32 H5           1.9400     0.0500    -0.9370 ha         1 3OR       0.115000
     33 H7           3.9510    -0.2820     0.2050 h1         1 3OR       0.044200
     34 H7A          3.9540     0.9910     1.4330 h1         1 3OR       0.044200
     35 H13         -1.0200     2.3600     0.6950 ha         1 3OR       0.116000
     36 H17         -5.9440     2.4120     1.0470 ha         1 3OR       0.128000
     37 H22          4.9160    -4.1130     2.3620 hc         1 3OR       0.045700
     38 H22A         3.5410    -3.7250     3.4100 hc         1 3OR       0.045700
     39 H24          5.3490    -0.9960     5.2370 h1         1 3OR       0.026700
     40 H24A         3.7370    -1.6020     4.8120 h1         1 3OR       0.026700
     41 HN2         -2.5840    -0.8520     1.4010 hn         1 3OR       0.308800
     42 H14         -2.2600     4.4650     0.3700 ha         1 3OR       0.114000
     43 H23          5.5090    -3.3880     4.7440 hc         1 3OR       0.031700
     44 H23A         6.3100    -2.4810     3.4460 hc         1 3OR       0.031700
     45 HN28         0.9180    -0.2510    -2.4380 hn         1 3OR       0.166500
     46 H30          0.7440     0.5580    -4.8590 h1         1 3OR       0.001200
     47 H30A         0.5920    -1.2020    -4.7620 h1         1 3OR       0.001200
     48 H31         -0.2060    -0.4530    -6.9450 h1         1 3OR      -0.004300
     49 H31A        -1.5820    -1.0340    -5.9960 h1         1 3OR      -0.004300
     50 HO32        -1.9280     1.0430    -7.0300 ho         1 3OR       0.393000
     51 I16         -5.2230     5.3560     0.4150 i          1 3OR      -0.303900
@<TRIPOS>BOND
     1     1     2 ar  
     2     1    11 1   
     3     1    12 ar  
     4     2     3 ar  
     5     2    32 1   
     6     3     4 1   
     7     3    16 ar  
     8     4    15 1   
     9     4    33 1   
    10     4    34 1   
    11     5    14 ar  
    12     5    20 ar  
    13     5    35 1   
    14     6     7 ar  
    15     6    20 ar  
    16     6    51 1   
    17     7    21 ar  
    18     7    36 1   
    19     8     9 1   
    20     8    15 1   
    21     8    23 2   
    22     9    24 1   
    23     9    37 1   
    24     9    38 1   
    25    10    24 1   
    26    10    25 1   
    27    10    39 1   
    28    10    40 1   
    29    11    26 2   
    30    11    27 1   
    31    12    13 1   
    32    12    18 ar  
    33    13    14 1   
    34    13    41 1   
    35    14    21 ar  
    36    15    25 1   
    37    16    17 1   
    38    16    18 ar  
    39    18    19 1   
    40    20    42 1   
    41    21    22 1   
    42    24    43 1   
    43    24    44 1   
    44    27    28 1   
    45    27    45 1   
    46    28    29 1   
    47    29    30 1   
    48    29    46 1   
    49    29    47 1   
    50    30    31 1   
    51    30    48 1   
    52    30    49 1   
    53    31    50 1   
@<TRIPOS>SUBSTRUCTURE
     1 3OR         1 TEMP              0 ****  ****    0 ROOT
