@<TRIPOS>MOLECULE
3OS
   49    50     1     0     0
SMALL
bcc


@<TRIPOS>ATOM
      1 C4           0.0000     0.0000     0.0000 ca         1 3OS      -0.192600
      2 C5           1.3940     0.0000     0.0000 ca         1 3OS      -0.034000
      3 C6           2.0870     0.0000     1.2070 ca         1 3OS      -0.164900
      4 C7           1.3830    -0.0000     2.4200 ca         1 3OS       0.126900
      5 C13         -4.1670    -3.6080     1.4640 ca         1 3OS       0.031000
      6 C15         -5.4800    -5.8540     1.6120 c1         1 3OS      -0.115500
      7 C17         -4.1710    -1.2050     1.4250 ca         1 3OS       0.042900
      8 C22          6.1400    -0.3150     3.7810 c3         1 3OS       0.263400
      9 C1          -0.6980    -0.0010     1.2200 ca         1 3OS       0.056600
     10 N2          -2.0870    -0.0010     1.2250 nu         1 3OS      -0.241000
     11 C3          -2.7830    -1.2100     1.3050 ca         1 3OS       0.033600
     12 F8           2.0580     0.0010     3.5900 f          1 3OS      -0.102900
     13 C9           0.0020    -0.0010     2.4220 ca         1 3OS       0.076900
     14 F10         -0.6700    -0.0020     3.5940 f          1 3OS      -0.102900
     15 C11         -2.0920    -2.4150     1.2590 ca         1 3OS      -0.158000
     16 C12         -2.7760    -3.6080     1.3430 ca         1 3OS      -0.039000
     17 C14         -4.8800    -4.8460     1.5510 cg         1 3OS      -0.122000
     18 C16         -4.8610    -2.3960     1.5030 ca         1 3OS      -0.079000
     19 C19          3.5610    -0.0000     1.2100 ce         1 3OS       0.381800
     20 N20          4.2060    -0.0000     2.3330 n2         1 3OS      -0.327200
     21 O21          5.6220    -0.0000     2.3360 os         1 3OS      -0.217300
     22 C23          6.0720     1.1410     4.3230 c3         1 3OS       0.136400
     23 O24          5.8640     0.9460     5.8100 oh         1 3OS      -0.586800
     24 C25         -0.7390     0.0060    -1.2750 c          1 3OS       0.579700
     25 O26         -1.9530    -0.0790    -1.2740 o          1 3OS      -0.611100
     26 N27         -0.0720     0.1050    -2.4410 ns         1 3OS      -0.071400
     27 O28         -0.7820     0.1110    -3.6660 os         1 3OS      -0.280900
     28 C29          0.0520     0.2210    -4.8210 c3         1 3OS       0.153400
     29 C30         -0.8170     0.2170    -6.0800 c3         1 3OS       0.222400
     30 O31         -1.6400     1.3860    -6.0940 oh         1 3OS      -0.567800
     31 H5           1.7350    -0.0090    -1.0280 ha         1 3OS       0.122000
     32 H15         -5.4810    -6.9200     1.8040 ha         1 3OS       0.137500
     33 H22          7.0960    -0.7850     3.5840 h1         1 3OS       0.044200
     34 H22A         5.4450    -0.8540     4.4120 h1         1 3OS       0.044200
     35 HN2         -2.4980     0.8160     0.8190 hn         1 3OS       0.312800
     36 H11         -1.0310    -2.2050     1.1970 ha         1 3OS       0.117000
     37 H12         -2.2710    -4.5660     1.3510 ha         1 3OS       0.107000
     38 H16         -5.9250    -2.1990     1.4390 ha         1 3OS       0.125000
     39 H19          3.8540     1.0150     0.9710 h4         1 3OS      -0.015200
     40 H23          5.6410     2.0100     3.8400 h1         1 3OS       0.015200
     41 H23A         7.0880     1.4960     4.4410 h1         1 3OS       0.015200
     42 HO24         5.2380     1.6430     5.9140 ho         1 3OS       0.386000
     43 HN27         0.7390    -0.4340    -2.2090 hn         1 3OS       0.159500
     44 H29          0.2090     1.2910    -4.7580 h1         1 3OS       0.026700
     45 H29A         0.8850    -0.4300    -4.5850 h1         1 3OS       0.026700
     46 H30          0.0560     0.4070    -6.6920 h1         1 3OS       0.006700
     47 H30A        -1.3470    -0.6290    -6.5010 h1         1 3OS       0.006700
     48 HO31        -2.5230     1.0570    -6.0630 ho         1 3OS       0.397000
     49 F18         -4.8410    -0.0320     1.4700 f          1 3OS      -0.126900
@<TRIPOS>BOND
     1     1     2 ar  
     2     1     9 ar  
     3     1    24 1   
     4     2     3 ar  
     5     2    31 1   
     6     3     4 ar  
     7     3    19 1   
     8     4    12 1   
     9     4    13 ar  
    10     5    16 ar  
    11     5    17 1   
    12     5    18 ar  
    13     6    17 3   
    14     6    32 1   
    15     7    11 ar  
    16     7    18 ar  
    17     7    49 1   
    18     8    21 1   
    19     8    22 1   
    20     8    33 1   
    21     8    34 1   
    22     9    10 1   
    23     9    13 ar  
    24    10    11 1   
    25    10    35 1   
    26    11    15 ar  
    27    13    14 1   
    28    15    16 ar  
    29    15    36 1   
    30    16    37 1   
    31    18    38 1   
    32    19    20 2   
    33    19    39 1   
    34    20    21 1   
    35    22    23 1   
    36    22    40 1   
    37    22    41 1   
    38    23    42 1   
    39    24    25 2   
    40    24    26 1   
    41    26    27 1   
    42    26    43 1   
    43    27    28 1   
    44    28    29 1   
    45    28    44 1   
    46    28    45 1   
    47    29    30 1   
    48    29    46 1   
    49    29    47 1   
    50    30    48 1   
@<TRIPOS>SUBSTRUCTURE
     1 3OS         1 TEMP              0 ****  ****    0 ROOT
