@<TRIPOS>MOLECULE
molecule
   49    50     1     0     0
SMALL
bcc


@<TRIPOS>ATOM
      1 C4           0.0000     0.0000     0.0000 ca         1 3OS      -0.154600
      2 C5           1.3940     0.0000     0.0000 ca         1 3OS      -0.080000
      3 C6           2.0870     0.0000     1.2070 ca         1 3OS      -0.157900
      4 C7           1.3830    -0.0000     2.4200 ca         1 3OS       0.161900
      5 C13         -4.1670    -3.6080     1.4640 ca         1 3OS       0.007000
      6 C15         -5.4540    -5.8690     1.6070 c1         1 3OS      -0.133500
      7 C17         -4.1710    -1.2050     1.4250 ca         1 3OS       0.067900
      8 C22          5.9620     0.5870     3.2700 c3         1 3OS       0.150400
      9 C1          -0.6980    -0.0010     1.2200 ca         1 3OS       0.185600
     10 N2          -2.0870    -0.0010     1.2250 nu         1 3OS      -0.649000
     11 C3          -2.7830    -1.2100     1.3050 ca         1 3OS       0.149600
     12 F8           2.0580     0.0010     3.5900 f          1 3OS      -0.088900
     13 C9           0.0020    -0.0010     2.4220 ca         1 3OS       0.066900
     14 F10         -0.6700    -0.0020     3.5940 f          1 3OS      -0.107900
     15 C11         -2.0920    -2.4150     1.2590 ca         1 3OS      -0.177000
     16 C12         -2.7760    -3.6080     1.3430 ca         1 3OS      -0.063000
     17 C14         -4.8800    -4.8460     1.5510 cg         1 3OS      -0.121000
     18 C16         -4.8610    -2.3960     1.5030 ca         1 3OS      -0.107000
     19 C19          3.5610    -0.0000     1.2100 ce         1 3OS       0.437800
     20 N20          4.2060    -0.0000     2.3330 n2         1 3OS      -0.405200
     21 O21          5.6220    -0.0000     2.3360 os         1 3OS      -0.096300
     22 C23          6.8810     0.8150     3.7490 c3         1 3OS       0.514400
     23 O24          7.4740     1.4730     4.3500 oh         1 3OS      -0.608800
     24 C25         -0.7390     0.0060    -1.2750 c          1 3OS       0.641700
     25 O26         -1.9530    -0.0790    -1.2740 o          1 3OS      -0.533100
     26 N27         -0.0720     0.1050    -2.4410 ns         1 3OS      -0.459400
     27 O28         -0.7820     0.1110    -3.6660 os         1 3OS      -0.197900
     28 C29          0.0520     0.2210    -4.8210 c3         1 3OS       0.061400
     29 C30         -0.8170     0.2170    -6.0800 c3         1 3OS       0.138400
     30 O31         -1.6400     1.3860    -6.0940 oh         1 3OS      -0.586800
     31 H5           1.5880     0.3940    -0.9900 ha         1 3OS       0.149000
     32 H15         -5.9630    -6.7440     1.9930 ha         1 3OS       0.167500
     33 H22          5.9680    -0.1410     4.0720 h1         1 3OS      -0.008800
     34 H22A         5.2070     1.2120     3.7320 h1         1 3OS      -0.008800
     35 HN2         -2.5220     0.8040     1.6290 hn         1 3OS       0.451800
     36 H11         -1.2210    -2.0510     0.7280 ha         1 3OS       0.152000
     37 H12         -2.4820    -4.5580     0.9140 ha         1 3OS       0.149000
     38 H16         -5.9080    -2.2160     1.2900 ha         1 3OS       0.155000
     39 H19          3.9210    -0.0500     0.1900 h4         1 3OS       0.017800
     40 H23          7.4020     1.2170     2.8890 h1         1 3OS      -0.203300
     41 H23A         7.4690    -0.0870     3.6330 h1         1 3OS      -0.203300
     42 HO24         8.2430     2.0040     4.2290 ho         1 3OS       0.498000
     43 HN27         0.8050     0.5050    -2.1690 hn         1 3OS       0.310500
     44 H29          0.3210     1.2300    -4.5310 h1         1 3OS       0.042700
     45 H29A         0.8730    -0.4490    -4.5970 h1         1 3OS       0.042700
     46 H30         -0.3140    -0.3470    -6.8570 h1         1 3OS       0.067700
     47 H30A        -1.1430    -0.8150    -6.0530 h1         1 3OS       0.067700
     48 HO31        -1.9470     1.7450    -5.2790 ho         1 3OS       0.443000
     49 F18         -4.8410    -0.0320     1.4700 f          1 3OS      -0.141900
@<TRIPOS>BOND
     1     1     2 ar  
     2     2     3 ar  
     3     2    31 1   
     4     3    19 1   
     5     4     3 ar  
     6     4    12 1   
     7     5    16 ar  
     8     6    17 3   
     9     6    32 1   
    10     7    11 ar  
    11     8    22 1   
    12     8    33 1   
    13     8    34 1   
    14     9     1 ar  
    15     9    13 ar  
    16    10     9 1   
    17    10    35 1   
    18    11    10 1   
    19    11    15 ar  
    20    13     4 ar  
    21    14    13 1   
    22    15    36 1   
    23    16    15 ar  
    24    16    37 1   
    25    17     5 1   
    26    18     5 ar  
    27    18     7 ar  
    28    18    38 1   
    29    49     7 1   
    30    19    20 2   
    31    19    39 1   
    32    20    21 1   
    33    21     8 1   
    34    22    23 1   
    35    22    40 1   
    36    22    41 1   
    37    23    42 1   
    38    24     1 1   
    39    24    26 1   
    40    25    24 2   
    41    26    43 1   
    42    27    26 1   
    43    28    27 1   
    44    28    44 1   
    45    28    45 1   
    46    29    28 1   
    47    29    46 1   
    48    29    47 1   
    49    30    29 1   
    50    30    48 1   
@<TRIPOS>SUBSTRUCTURE
     1 3OS         1 TEMP              0 ****  ****    0 ROOT
