@<TRIPOS>MOLECULE
molecule
   66    70     1     0     0
SMALL
bcc


@<TRIPOS>ATOM
      1 N3           0.0000     0.0000     0.0000 n3         1 3OT      -0.731600
      2 C4          -4.6480    -3.2760    -6.4070 cc         1 3OT       0.064800
      3 N2          -2.5610     0.3630    -2.6920 na         1 3OT      -0.154300
      4 C7          -6.4680    -4.7800    -8.4770 cc         1 3OT      -0.241200
      5 C6          -6.7820    -3.7160    -7.6580 cd         1 3OT      -0.042000
      6 C9          -4.0880    -2.3710    -5.3780 ca         1 3OT      -0.099800
      7 C13         -3.4290    -0.1680    -4.6710 ca         1 3OT       0.091400
      8 C20          1.9760     0.0000     1.4450 c3         1 3OT       0.139900
      9 C21          1.4710     0.0000     0.0000 c3         1 3OT       0.121300
     10 C8          -5.2460    -5.4640    -8.5900 c          1 3OT       0.563500
     11 C18         -0.5210    -1.1730     0.7170 c3         1 3OT       0.121300
     12 C16         -2.0350     0.3070    -1.3260 c3         1 3OT       0.046300
     13 C19          0.0040    -1.1600     2.1550 c3         1 3OT       0.139900
     14 C26         -2.8690     7.2850    -2.4300 ca         1 3OT      -0.125500
     15 C1          -1.7390    -5.7980    -7.4530 c3         1 3OT       0.118700
     16 C2          -4.0040    -5.2130    -7.8590 cc         1 3OT       0.090900
     17 C3          -3.7640    -4.2460    -6.9050 cd         1 3OT      -0.239000
     18 C5          -5.9790    -3.0500    -6.7430 cd         1 3OT      -0.168000
     19 O2          -5.2180    -6.3840    -9.3970 o          1 3OT      -0.549100
     20 C10         -3.6910    -2.8850    -4.1400 ca         1 3OT      -0.102000
     21 C11         -3.1720    -2.0620    -3.1810 ca         1 3OT      -0.128000
     22 C12         -3.0350    -0.7010    -3.4310 ca         1 3OT      -0.089200
     23 C14         -3.9580    -1.0130    -5.6460 ca         1 3OT      -0.052000
     24 N1          -3.1880     1.1680    -4.6220 nc         1 3OT      -0.599100
     25 C15         -2.6770     1.4770    -3.4670 cd         1 3OT       0.427800
     26 C17         -0.5260     0.0570    -1.3700 c3         1 3OT       0.139800
     27 O3           1.4340    -1.1300     2.1340 os         1 3OT      -0.421600
     28 C22         -2.2770     2.8670    -3.0420 c3         1 3OT      -0.080700
     29 C23         -3.4680     3.5580    -2.3740 c3         1 3OT      -0.033100
     30 C24         -3.0680     4.9480    -1.9510 ca         1 3OT      -0.091300
     31 C25         -3.2360     6.0100    -2.8190 ca         1 3OT      -0.123000
     32 C27         -2.3310     7.4970    -1.1760 ca         1 3OT      -0.128000
     33 C28         -2.1620     6.4350    -0.3070 ca         1 3OT      -0.125500
     34 C29         -2.5340     5.1610    -0.6930 ca         1 3OT      -0.123000
     35 H7          -7.2680    -5.1350    -9.1160 ha         1 3OT       0.155000
     36 H6          -7.7980    -3.3490    -7.7400 ha         1 3OT       0.127000
     37 H19          1.6570     0.9100     1.9380 h1         1 3OT       0.055450
     38 H20          3.0580    -0.0600     1.4480 h1         1 3OT       0.055450
     39 H21          1.8310     0.8860    -0.5080 h1         1 3OT       0.044700
     40 H22          1.8310    -0.8860    -0.5080 h1         1 3OT       0.044700
     41 H16         -1.6040    -1.1370     0.7280 h1         1 3OT       0.044700
     42 H15         -0.1880    -2.0760     0.2200 h1         1 3OT       0.044700
     43 H12         -2.2310     1.2470    -0.8240 h1         1 3OT       0.070200
     44 H11         -2.5190    -0.4980    -0.7860 h1         1 3OT       0.070200
     45 H17         -0.3300    -2.0530     2.6690 h1         1 3OT       0.055450
     46 H18         -0.3680    -0.2800     2.6660 h1         1 3OT       0.055450
     47 H28         -3.0010     8.1180    -3.1110 ha         1 3OT       0.131000
     48 H2          -1.3940    -4.7900    -7.6470 h1         1 3OT       0.047367
     49 H1          -0.9870    -6.5060    -7.7800 h1         1 3OT       0.047367
     50 H3          -1.9140    -5.9220    -6.3910 h1         1 3OT       0.047367
     51 H4          -2.7650    -4.2330    -6.4870 ha         1 3OT       0.143000
     52 H5          -6.4580    -2.2350    -6.2130 ha         1 3OT       0.135000
     53 H8          -3.7990    -3.9440    -3.9370 ha         1 3OT       0.138000
     54 H9          -2.8670    -2.4700    -2.2250 ha         1 3OT       0.127000
     55 H10         -4.1480    -0.6370    -6.6440 ha         1 3OT       0.151000
     56 H13         -0.0430     0.8620    -1.9100 h1         1 3OT       0.048200
     57 H14         -0.3300    -0.8830    -1.8720 h1         1 3OT       0.048200
     58 H23         -1.9720     3.4360    -3.9120 hc         1 3OT       0.070200
     59 H24         -1.4540     2.8080    -2.3410 hc         1 3OT       0.070200
     60 H25         -3.7730     2.9890    -1.5040 hc         1 3OT       0.057700
     61 H26         -4.2920     3.6170    -3.0740 hc         1 3OT       0.057700
     62 H27         -3.6580     5.8440    -3.8030 ha         1 3OT       0.131500
     63 H29         -2.0410     8.4960    -0.8730 ha         1 3OT       0.130000
     64 H30         -1.7420     6.6020     0.6770 ha         1 3OT       0.131000
     65 H31         -2.4020     4.3290    -0.0120 ha         1 3OT       0.131500
     66 O1          -2.9620    -6.0270    -8.1560 os         1 3OT      -0.287900
@<TRIPOS>BOND
     1    15    66 1
     2    66    16 1
     3    19    10 2
     4    29    30 1
     5    29    28 1
     6    16    10 1
     7    16    17 2
     8    34    30 ar
     9    34    33 ar
    10    10     4 1
    11    24     7 1
    12    24    25 2
    13    30    31 ar
    14    17     2 1
    15    28    25 1
    16    33    32 ar
    17    23     7 ar
    18    23     6 ar
    19     7    22 ar
    20    25     3 1
    21    31    14 ar
    22     4     5 2
    23     2     6 1
    24     2    18 2
    25    32    14 ar
    26     6    20 ar
    27     5    18 1
    28     3    22 1
    29     3    12 1
    30    22    21 ar
    31    20    21 ar
    32    12    26 1
    33    26     1 1
    34     1     9 1
    35     1    11 1
    36     8     9 1
    37     8    27 1
    38    13    11 1
    39    13    27 1
    40     4    35 1
    41     5    36 1
    42     8    37 1
    43     8    38 1
    44     9    39 1
    45     9    40 1
    46    11    41 1
    47    11    42 1
    48    12    43 1
    49    12    44 1
    50    13    45 1
    51    13    46 1
    52    14    47 1
    53    15    48 1
    54    15    49 1
    55    15    50 1
    56    17    51 1
    57    18    52 1
    58    20    53 1
    59    21    54 1
    60    23    55 1
    61    26    56 1
    62    26    57 1
    63    28    58 1
    64    28    59 1
    65    29    60 1
    66    29    61 1
    67    31    62 1
    68    32    63 1
    69    33    64 1
    70    34    65 1
@<TRIPOS>SUBSTRUCTURE
     1 3OT         1 TEMP              0 ****  ****    0 ROOT
