@<TRIPOS>MOLECULE
3OU
   81    86     1     0     0
SMALL
bcc


@<TRIPOS>ATOM
      1 C1           0.0000     0.0000     0.0000 c          1 3OU       0.575700
      2 C2           1.4120     0.0000     0.0000 cc         1 3OU      -0.158200
      3 C3           2.0820     0.0000     1.1910 cd         1 3OU      -0.020000
      4 C4           1.3420     0.0010     2.3940 cd         1 3OU      -0.118200
      5 C5          -0.0200     0.0010     2.3530 cc         1 3OU      -0.123400
      6 N6          -0.6770     0.0010     1.1630 n          1 3OU       0.129000
      7 C7          -2.1430     0.0010     1.1480 c3         1 3OU       0.047300
      8 O8          -0.6100     0.0040    -1.0570 o          1 3OU      -0.689500
      9 N9           2.1200    -0.0020    -1.2090 nu         1 3OU      -0.281700
     10 C10          1.9530     1.0370    -2.1100 ca         1 3OU       0.531200
     11 C11          1.1830     2.1420    -1.7500 ca         1 3OU      -0.288300
     12 C12          1.0230     3.1680    -2.6420 ca         1 3OU       0.038000
     13 C13          1.6470     3.0680    -3.8950 ca         1 3OU      -0.345900
     14 C14          2.4030     1.9320    -4.1880 ca         1 3OU       0.450200
     15 N15          2.5310     0.9680    -3.3030 nb         1 3OU      -0.658000
     16 C16          1.5050     4.1500    -4.8890 c          1 3OU       0.631700
     17 O17          0.4790     4.8010    -4.9360 o          1 3OU      -0.654100
     18 N18          2.5110     4.4150    -5.7450 n          1 3OU      -0.152800
     19 C19          2.3480     5.4060    -6.8210 c3         1 3OU      -0.008000
     20 C20          3.5340     6.3770    -6.7660 c3         1 3OU       0.198400
     21 O21          4.7530     5.6320    -6.7680 os         1 3OU      -0.407600
     22 C22          4.9180     4.7760    -5.6350 c3         1 3OU       0.198400
     23 C23          3.8060     3.7270    -5.6280 c3         1 3OU      -0.008000
     24 C24          2.0480     0.0010     3.7000 ca         1 3OU      -0.015800
     25 C25          2.1090    -1.1650     4.4600 ca         1 3OU      -0.089000
     26 C26          2.7660    -1.1640     5.6760 ca         1 3OU      -0.092000
     27 C27          3.3630    -0.0080     6.1410 ca         1 3OU      -0.089000
     28 C28          3.3070     1.1590     5.3890 ca         1 3OU      -0.044400
     29 C29          2.6540     1.1650     4.1650 ca         1 3OU      -0.069300
     30 C30          2.5970     2.4280     3.3460 c3         1 3OU       0.261700
     31 N31          3.9130     2.3270     5.8640 n          1 3OU      -0.040000
     32 C32          3.1430     3.2490     6.6970 c3         1 3OU       0.053000
     33 C33          3.9980     3.7960     7.8370 c3         1 3OU       0.010900
     34 C34          5.1970     2.5820     5.5510 c          1 3OU       0.657100
     35 C35          5.8830     3.7250     6.1830 ca         1 3OU      -0.225600
     36 C36          5.2980     4.3340     7.2970 ca         1 3OU      -0.010300
     37 C37          5.9130     5.4090     7.8930 ca         1 3OU      -0.207000
     38 C38          7.1250     5.8810     7.3940 ca         1 3OU       0.104600
     39 C39          7.7190     5.2630     6.2970 ca         1 3OU      -0.217000
     40 C40          7.1090     4.1830     5.7010 ca         1 3OU       0.025000
     41 N41          7.7430     6.9720     7.9940 nh         1 3OU      -0.383000
     42 C42          9.0180     7.4710     7.4720 c3         1 3OU       0.209100
     43 C43          7.1190     7.6240     9.1480 c3         1 3OU       0.209100
     44 O44          5.7870     1.8770     4.7560 o          1 3OU      -0.685500
     45 O45          1.4340     3.1760     3.7040 oh         1 3OU      -0.596800
     46 H1           3.1650     0.0000     1.2120 ha         1 3OU       0.125000
     47 H2          -0.5840     0.0010     3.2770 h4         1 3OU       0.138000
     48 H3          -2.5150    -0.1460     2.1540 h1         1 3OU       0.027700
     49 H4          -2.5000     0.9500     0.7660 h1         1 3OU       0.027700
     50 H5          -2.4970    -0.8010     0.5110 h1         1 3OU       0.027700
     51 H6           2.7260    -0.7660    -1.4330 hn         1 3OU       0.290800
     52 H7           0.7150     2.1880    -0.7740 ha         1 3OU       0.123000
     53 H8           0.4300     4.0380    -2.3850 ha         1 3OU       0.118000
     54 H9           2.8890     1.8440    -5.1520 h4         1 3OU      -0.006900
     55 H10          2.3350     4.9030    -7.7800 h1         1 3OU       0.044450
     56 H11          1.4240     5.9520    -6.6760 h1         1 3OU       0.044450
     57 H12          3.4730     6.9680    -5.8600 h1         1 3OU       0.014450
     58 H13          3.5070     7.0270    -7.6320 h1         1 3OU       0.014450
     59 H14          5.8800     4.2820    -5.6940 h1         1 3OU       0.014450
     60 H15          4.8630     5.3660    -4.7270 h1         1 3OU       0.014450
     61 H16          3.9370     3.0540    -6.4670 h1         1 3OU       0.044450
     62 H17          3.8390     3.1700    -4.6990 h1         1 3OU       0.044450
     63 H18          1.6420    -2.0730     4.0980 ha         1 3OU       0.107000
     64 H19          2.8120    -2.0710     6.2660 ha         1 3OU       0.106000
     65 H20          3.8750    -0.0110     7.0960 ha         1 3OU       0.110000
     66 H21          3.4820     3.0230     3.5370 h1         1 3OU       0.003700
     67 H22          2.5530     2.1740     2.2940 h1         1 3OU       0.003700
     68 H23          2.8190     4.0800     6.0820 h1         1 3OU       0.027200
     69 H24          2.3060     2.7100     7.1240 h1         1 3OU       0.027200
     70 H25          4.2160     2.9880     8.5260 hc         1 3OU       0.030200
     71 H26          3.4610     4.6050     8.3170 hc         1 3OU       0.030200
     72 H27          5.4530     5.8920     8.7460 ha         1 3OU       0.120000
     73 H28          8.6620     5.6320     5.9120 ha         1 3OU       0.119000
     74 H29          7.5710     3.7020     4.8480 ha         1 3OU       0.120000
     75 H30          8.8920     7.7760     6.4400 h1         1 3OU       0.006867
     76 H31          9.7630     6.6860     7.5270 h1         1 3OU       0.006867
     77 H32          9.3430     8.3190     8.0620 h1         1 3OU       0.006867
     78 H33          6.1430     7.9990     8.8670 h1         1 3OU       0.006867
     79 H34          7.7410     8.4480     9.4770 h1         1 3OU       0.006867
     80 H35          7.0130     6.9080     9.9540 h1         1 3OU       0.006867
     81 H36          1.3920     3.9600     3.1830 ho         1 3OU       0.392000
@<TRIPOS>BOND
     1     1     2 1   
     2     1     6 1   
     3     1     8 2   
     4     2     3 2   
     5     2     9 1   
     6     3     4 1   
     7     3    46 1   
     8     4     5 2   
     9     4    24 1   
    10     5     6 1   
    11     5    47 1   
    12     6     7 1   
    13     7    48 1   
    14     7    49 1   
    15     7    50 1   
    16     9    10 1   
    17     9    51 1   
    18    10    11 ar  
    19    10    15 ar  
    20    11    12 ar  
    21    11    52 1   
    22    12    13 ar  
    23    12    53 1   
    24    13    14 ar  
    25    13    16 1   
    26    14    15 ar  
    27    14    54 1   
    28    16    17 2   
    29    16    18 1   
    30    18    19 1   
    31    18    23 1   
    32    19    20 1   
    33    19    55 1   
    34    19    56 1   
    35    20    21 1   
    36    20    57 1   
    37    20    58 1   
    38    21    22 1   
    39    22    23 1   
    40    22    59 1   
    41    22    60 1   
    42    23    61 1   
    43    23    62 1   
    44    24    25 ar  
    45    24    29 ar  
    46    25    26 ar  
    47    25    63 1   
    48    26    27 ar  
    49    26    64 1   
    50    27    28 ar  
    51    27    65 1   
    52    28    29 ar  
    53    28    31 1   
    54    29    30 1   
    55    30    45 1   
    56    30    66 1   
    57    30    67 1   
    58    31    32 1   
    59    31    34 1   
    60    32    33 1   
    61    32    68 1   
    62    32    69 1   
    63    33    36 1   
    64    33    70 1   
    65    33    71 1   
    66    34    35 1   
    67    34    44 2   
    68    35    36 ar  
    69    35    40 ar  
    70    36    37 ar  
    71    37    38 ar  
    72    37    72 1   
    73    38    39 ar  
    74    38    41 1   
    75    39    40 ar  
    76    39    73 1   
    77    40    74 1   
    78    41    42 1   
    79    41    43 1   
    80    42    75 1   
    81    42    76 1   
    82    42    77 1   
    83    43    78 1   
    84    43    79 1   
    85    43    80 1   
    86    45    81 1   
@<TRIPOS>SUBSTRUCTURE
     1 3OU         1 TEMP              0 ****  ****    0 ROOT
