@<TRIPOS>MOLECULE
3OV
   79    84     1     0     0
SMALL
bcc


@<TRIPOS>ATOM
      1 C1           0.0000     0.0000     0.0000 c          1 3OV       0.573700
      2 C2           1.4140     0.0000     0.0000 cc         1 3OV      -0.153200
      3 C3           2.0820     0.0000     1.1910 cd         1 3OV      -0.026000
      4 C4           1.3440    -0.0010     2.3940 cd         1 3OV      -0.120200
      5 C5          -0.0190     0.0000     2.3520 cc         1 3OV      -0.124400
      6 N6          -0.6760    -0.0010     1.1640 n          1 3OV       0.130000
      7 C7          -2.1410    -0.0010     1.1480 c3         1 3OV       0.046300
      8 O8          -0.6080     0.0050    -1.0580 o          1 3OV      -0.686500
      9 N9           2.1200    -0.0000    -1.2090 nu         1 3OV      -0.280700
     10 C10          1.9400     1.0290    -2.1170 ca         1 3OV       0.531200
     11 C11          1.1590     2.1280    -1.7640 ca         1 3OV      -0.284300
     12 C12          0.9880     3.1460    -2.6610 ca         1 3OV      -0.018000
     13 C13          1.6110     3.0460    -3.9150 ca         1 3OV      -0.343900
     14 C14          2.3800     1.9160    -4.2010 ca         1 3OV       0.512200
     15 N15          2.5180     0.9590    -3.3090 nb         1 3OV      -0.656000
     16 C16          1.4550     4.1190    -4.9160 c          1 3OV       0.631700
     17 O17          1.2160     3.8390    -6.0750 o          1 3OV      -0.646100
     18 N18          1.5780     5.4090    -4.5450 n          1 3OV      -0.152800
     19 C19          1.5180     6.4920    -5.5400 c3         1 3OV      -0.006000
     20 C20          2.7320     7.4050    -5.3360 c3         1 3OV       0.198400
     21 O21          2.7930     7.8060    -3.9640 os         1 3OV      -0.407600
     22 C22          2.9790     6.7250    -3.0470 c3         1 3OV       0.198400
     23 C23          1.7720     5.7770    -3.1340 c3         1 3OV      -0.006000
     24 C24          2.0490    -0.0000     3.6990 ca         1 3OV      -0.013800
     25 C25          2.1100    -1.1670     4.4600 ca         1 3OV      -0.079000
     26 C26          2.7670    -1.1660     5.6760 ca         1 3OV      -0.091000
     27 C27          3.3630    -0.0100     6.1420 ca         1 3OV      -0.073000
     28 C28          3.3060     1.1580     5.3900 ca         1 3OV      -0.094400
     29 C29          2.6550     1.1630     4.1660 ca         1 3OV      -0.061300
     30 C30          2.5970     2.4270     3.3460 c3         1 3OV       0.258700
     31 N31          3.9110     2.3270     5.8670 n          1 3OV       0.185800
     32 C32          3.1770     3.1800     6.6450 cc         1 3OV      -0.119400
     33 C33          3.6870     4.3190     7.1390 cd         1 3OV      -0.189200
     34 C34          5.1970     2.5720     5.5470 c          1 3OV       0.621100
     35 C35          5.8390     3.7910     6.0390 ca         1 3OV      -0.267600
     36 C36          5.0770     4.6750     6.8400 ca         1 3OV       0.078200
     37 C37          5.6570     5.8430     7.3250 ca         1 3OV      -0.230000
     38 C38          6.9760     6.1320     7.0140 ca         1 3OV       0.132600
     39 C39          7.7250     5.2620     6.2190 ca         1 3OV      -0.258000
     40 C40          7.1710     4.0960     5.7400 ca         1 3OV       0.241900
     41 N41          7.5600     7.3000     7.4970 nh         1 3OV      -0.379000
     42 C42          8.9530     7.6120     7.1710 c3         1 3OV       0.207600
     43 C43          6.7800     8.2170     8.3310 c3         1 3OV       0.207600
     44 O44          5.8190     1.7850     4.8550 o          1 3OV      -0.666500
     45 O45          1.4330     3.1740     3.7060 oh         1 3OV      -0.594800
     46 F46          7.9050     3.2580     4.9760 f          1 3OV      -0.112900
     47 H1           3.1650    -0.0000     1.2120 ha         1 3OV       0.125000
     48 H2          -0.5840    -0.0000     3.2770 h4         1 3OV       0.138000
     49 H3          -2.4940    -0.7670     0.4680 h1         1 3OV       0.028033
     50 H4          -2.4990     0.9670     0.8180 h1         1 3OV       0.028033
     51 H5          -2.5130    -0.2030     2.1450 h1         1 3OV       0.028033
     52 H6           2.7470    -0.7510    -1.4210 hn         1 3OV       0.291800
     53 H7           0.6910     2.1750    -0.7880 ha         1 3OV       0.122000
     54 H8           0.3850     4.0110    -2.4100 ha         1 3OV       0.113000
     55 H9           2.8660     1.8270    -5.1650 h4         1 3OV      -0.009900
     56 H10          1.5440     6.0710    -6.5380 h1         1 3OV       0.042450
     57 H11          0.6070     7.0620    -5.4030 h1         1 3OV       0.042450
     58 H12          3.6350     6.8680    -5.5960 h1         1 3OV       0.014200
     59 H13          2.6320     8.2830    -5.9640 h1         1 3OV       0.014200
     60 H14          3.8820     6.1840    -3.3040 h1         1 3OV       0.014200
     61 H15          3.0590     7.1160    -2.0400 h1         1 3OV       0.014200
     62 H16          0.8860     6.2790    -2.7640 h1         1 3OV       0.042450
     63 H17          1.9650     4.8860    -2.5490 h1         1 3OV       0.042450
     64 H18          1.6430    -2.0750     4.0970 ha         1 3OV       0.109000
     65 H19          2.8140    -2.0730     6.2650 ha         1 3OV       0.109000
     66 H20          3.8740    -0.0130     7.0970 ha         1 3OV       0.114000
     67 H21          2.5520     2.1730     2.2940 h1         1 3OV       0.004200
     68 H22          3.4820     3.0220     3.5360 h1         1 3OV       0.004200
     69 H23          2.1490     2.9270     6.8720 h4         1 3OV       0.129000
     70 H24          3.0760     4.9710     7.7520 ha         1 3OV       0.123000
     71 H25          5.0810     6.5220     7.9420 ha         1 3OV       0.126000
     72 H26          8.7560     5.5020     5.9840 ha         1 3OV       0.134000
     73 H27          9.2290     8.5530     7.6310 h1         1 3OV       0.008533
     74 H28          9.5960     6.8240     7.5450 h1         1 3OV       0.008533
     75 H29          9.0640     7.6880     6.0960 h1         1 3OV       0.008533
     76 H30          7.3950     9.0640     8.6100 h1         1 3OV       0.008533
     77 H31          5.9170     8.5660     7.7760 h1         1 3OV       0.008533
     78 H32          6.4490     7.7010     9.2240 h1         1 3OV       0.008533
     79 H33          1.3920     3.9600     3.1860 ho         1 3OV       0.393000
@<TRIPOS>BOND
     1     1     2 1   
     2     1     6 1   
     3     1     8 2   
     4     2     3 2   
     5     2     9 1   
     6     3     4 1   
     7     3    47 1   
     8     4     5 2   
     9     4    24 1   
    10     5     6 1   
    11     5    48 1   
    12     6     7 1   
    13     7    49 1   
    14     7    50 1   
    15     7    51 1   
    16     9    10 1   
    17     9    52 1   
    18    10    11 ar  
    19    10    15 ar  
    20    11    12 ar  
    21    11    53 1   
    22    12    13 ar  
    23    12    54 1   
    24    13    14 ar  
    25    13    16 1   
    26    14    15 ar  
    27    14    55 1   
    28    16    17 2   
    29    16    18 1   
    30    18    19 1   
    31    18    23 1   
    32    19    20 1   
    33    19    56 1   
    34    19    57 1   
    35    20    21 1   
    36    20    58 1   
    37    20    59 1   
    38    21    22 1   
    39    22    23 1   
    40    22    60 1   
    41    22    61 1   
    42    23    62 1   
    43    23    63 1   
    44    24    25 ar  
    45    24    29 ar  
    46    25    26 ar  
    47    25    64 1   
    48    26    27 ar  
    49    26    65 1   
    50    27    28 ar  
    51    27    66 1   
    52    28    29 ar  
    53    28    31 1   
    54    29    30 1   
    55    30    45 1   
    56    30    67 1   
    57    30    68 1   
    58    31    32 1   
    59    31    34 1   
    60    32    33 2   
    61    32    69 1   
    62    33    36 1   
    63    33    70 1   
    64    34    35 1   
    65    34    44 2   
    66    35    36 ar  
    67    35    40 ar  
    68    36    37 ar  
    69    37    38 ar  
    70    37    71 1   
    71    38    39 ar  
    72    38    41 1   
    73    39    40 ar  
    74    39    72 1   
    75    40    46 1   
    76    41    42 1   
    77    41    43 1   
    78    42    73 1   
    79    42    74 1   
    80    42    75 1   
    81    43    76 1   
    82    43    77 1   
    83    43    78 1   
    84    45    79 1   
@<TRIPOS>SUBSTRUCTURE
     1 3OV         1 TEMP              0 ****  ****    0 ROOT
