@<TRIPOS>MOLECULE
3OZ
   54    57     1     0     0
SMALL
bcc


@<TRIPOS>ATOM
      1 C1           0.0000     0.0000     0.0000 ca         1 3OZ      -0.066400
      2 C2           1.3900     0.0000     0.0000 ca         1 3OZ      -0.066600
      3 C3          -0.6910     0.0020     1.2030 ca         1 3OZ      -0.090000
      4 C4           2.0790     0.0000     1.1990 ca         1 3OZ      -0.082000
      5 C5           0.0010     0.0020     2.3980 ca         1 3OZ      -0.074000
      6 C6           1.3860     0.0010     2.3960 ca         1 3OZ      -0.046600
      7 Cl7          2.2530     0.0010     3.9000 cl         1 3OZ      -0.032400
      8 Cl8          2.2600    -0.0020    -1.5020 cl         1 3OZ      -0.029400
      9 N9          -0.7010     0.0060    -1.2120 ns         1 3OZ      -0.051100
     10 C10         -1.8710    -0.6530    -1.3170 c          1 3OZ       0.570100
     11 C11         -2.5760    -0.7320    -2.6470 c3         1 3OZ       0.120800
     12 O12         -2.3590    -1.1820    -0.3400 o          1 3OZ      -0.593100
     13 C13         -2.9880     0.6490    -3.1030 ca         1 3OZ      -0.150300
     14 C14         -4.3390     0.8060    -2.8460 ca         1 3OZ      -0.100300
     15 C15         -4.8520    -0.4690    -2.2150 c3         1 3OZ       0.189100
     16 N16         -3.8340    -1.5010    -2.5150 n3         1 3OZ      -0.479600
     17 C17         -4.1530    -2.2080    -3.7620 c3         1 3OZ       0.217100
     18 C18         -2.2720     1.6780    -3.6830 ca         1 3OZ      -0.078000
     19 C19         -2.9050     2.8640    -4.0080 ca         1 3OZ      -0.109000
     20 C20         -4.2540     3.0200    -3.7520 ca         1 3OZ      -0.094000
     21 C21         -4.9710     1.9900    -3.1710 ca         1 3OZ      -0.075000
     22 C22         -7.6400    -3.6210    -3.4760 ca         1 3OZ      -0.143300
     23 C23         -7.3800    -4.9260    -3.0830 ca         1 3OZ       0.181100
     24 C24         -6.5960    -2.7450    -3.6970 ca         1 3OZ      -0.076000
     25 C25         -6.0680    -5.3450    -2.9070 ca         1 3OZ      -0.221000
     26 C26         -5.2900    -3.1660    -3.5210 ca         1 3OZ      -0.174300
     27 C27         -5.0270    -4.4640    -3.1240 ca         1 3OZ      -0.040000
     28 C30         -8.0620    -7.1180    -2.4660 c3         1 3OZ       0.080400
     29 C31         -9.3190    -7.9280    -2.2780 c          1 3OZ       0.975600
     30 O32         -9.2390    -9.2130    -1.8980 o          1 3OZ      -0.883300
     31 O33        -10.3990    -7.4200    -2.4700 o          1 3OZ      -0.883300
     32 H3          -1.7750     0.0020     1.2050 ha         1 3OZ       0.158000
     33 H4           3.1620    -0.0000     1.2010 ha         1 3OZ       0.122000
     34 H5          -0.5390     0.0030     3.3370 ha         1 3OZ       0.118000
     35 HN9         -0.3170     0.4740    -2.0090 hn         1 3OZ       0.177500
     36 H11         -1.9350    -1.1930    -3.3890 h1         1 3OZ       0.046700
     37 H15         -4.9490    -0.3420    -1.1430 h1         1 3OZ       0.051200
     38 H15A        -5.8040    -0.7450    -2.6530 h1         1 3OZ       0.051200
     39 H17         -3.2820    -2.7580    -4.0980 h1         1 3OZ       0.007700
     40 H17A        -4.4410    -1.4900    -4.5210 h1         1 3OZ       0.007700
     41 H18         -1.2140     1.5560    -3.8840 ha         1 3OZ       0.096000
     42 H19         -2.3440     3.6710    -4.4630 ha         1 3OZ       0.102000
     43 H20         -4.7500     3.9490    -4.0060 ha         1 3OZ       0.102000
     44 H21         -6.0280     2.1130    -2.9700 ha         1 3OZ       0.108000
     45 H24         -6.8000    -1.7270    -4.0040 ha         1 3OZ       0.096000
     46 H25         -5.8620    -6.3620    -2.5980 ha         1 3OZ       0.133000
     47 H27         -4.0040    -4.7910    -2.9870 ha         1 3OZ       0.095000
     48 H28         -9.5300    -3.0190    -2.7010 hc         1 3OZ       0.007367
     49 H28A        -9.6120    -3.9110    -4.2270 hc         1 3OZ       0.007367
     50 H28B        -9.0710    -2.2270    -4.2150 hc         1 3OZ       0.007367
     51 H30         -7.5130    -7.0810    -1.5320 h1         1 3OZ      -0.002800
     52 H30A        -7.4460    -7.5800    -3.2280 h1         1 3OZ      -0.002800
     53 C28         -9.0630    -3.1620    -3.6680 c3         1 3OZ       0.074200
     54 O29         -8.4050    -5.7910    -2.8700 os         1 3OZ      -0.255900
@<TRIPOS>BOND
     1     1     2 ar  
     2     1     3 ar  
     3     1     9 1   
     4     2     4 ar  
     5     2     8 1   
     6     3     5 ar  
     7     3    32 1   
     8     4     6 ar  
     9     4    33 1   
    10     5     6 ar  
    11     5    34 1   
    12     6     7 1   
    13     9    10 1   
    14     9    35 1   
    15    10    11 1   
    16    10    12 2   
    17    11    13 1   
    18    11    16 1   
    19    11    36 1   
    20    13    14 ar  
    21    13    18 ar  
    22    14    15 1   
    23    14    21 ar  
    24    15    16 1   
    25    15    37 1   
    26    15    38 1   
    27    16    17 1   
    28    17    26 1   
    29    17    39 1   
    30    17    40 1   
    31    18    19 ar  
    32    18    41 1   
    33    19    20 ar  
    34    19    42 1   
    35    20    21 ar  
    36    20    43 1   
    37    21    44 1   
    38    22    23 ar  
    39    22    24 ar  
    40    22    53 1   
    41    23    25 ar  
    42    23    54 1   
    43    24    26 ar  
    44    24    45 1   
    45    25    27 ar  
    46    25    46 1   
    47    26    27 ar  
    48    27    47 1   
    49    28    29 1   
    50    28    51 1   
    51    28    52 1   
    52    28    54 1   
    53    29    30 1   
    54    29    31 1   
    55    48    53 1   
    56    49    53 1   
    57    50    53 1   
@<TRIPOS>SUBSTRUCTURE
     1 3OZ         1 TEMP              0 ****  ****    0 ROOT
