@<TRIPOS>MOLECULE
3P0
   85    92     1     0     0
SMALL
bcc


@<TRIPOS>ATOM
      1 C1           0.0000     0.0000     0.0000 c2         1 3P0      -0.154000
      2 C2           1.3660     0.0000     0.0000 c2         1 3P0      -0.002000
      3 C3           2.0530     0.0000     1.2330 c2         1 3P0      -0.140000
      4 C4           1.3490    -0.0000     2.4020 c2         1 3P0      -0.128000
      5 C5          -0.6920    -0.0010     1.2320 c2         1 3P0       0.207000
      6 N6          -0.0080    -0.0000     2.3920 n          1 3P0       0.183000
      7 N7          -0.7070     0.0070    -1.2080 nu         1 3P0      -0.223000
      8 C8           3.5370     0.0000     1.2580 ca         1 3P0      -0.019000
      9 C9           4.2300    -1.1670     1.5760 ca         1 3P0      -0.089000
     10 C10          5.6110    -1.1650     1.5990 ca         1 3P0      -0.050000
     11 C11          6.3100    -0.0100     1.3070 ca         1 3P0      -0.095000
     12 C12          5.6270     1.1580     0.9880 ca         1 3P0      -0.069000
     13 C13          4.2410     1.1630     0.9590 ca         1 3P0      -0.065000
     14 N14          6.3380     2.3260     0.6930 n          1 3P0       0.104000
     15 C15          6.6890     3.2470     1.7720 c3         1 3P0      -0.155000
     16 C16          8.1020     3.7940     1.5830 c3         1 3P0      -0.095000
     17 C17          6.6940     2.5820    -0.5810 c2         1 3P0       0.272000
     18 C18          7.5820     3.7250    -0.8670 ca         1 3P0      -0.169000
     19 C19          8.2660     4.3320     0.1860 ca         1 3P0       0.030000
     20 C20          9.0870     5.4100    -0.0600 ca         1 3P0      -0.153000
     21 C21          9.2460     5.8810    -1.3530 ca         1 3P0      -0.078000
     22 C22          8.5880     5.2720    -2.4050 ca         1 3P0      -0.188000
     23 C23          7.7640     4.1870    -2.1720 ca         1 3P0       0.177000
     24 O24          6.2890     1.8770    -1.4850 o          1 3P0      -0.376000
     25 C25          3.4980     2.4260     0.6080 c3         1 3P0       0.106000
     26 O26          3.2420     3.1740     1.7980 oh         1 3P0      -0.369000
     27 C27         -0.7390    -0.0010     3.6620 c3         1 3P0      -0.107000
     28 O28         -1.9120    -0.0000     1.2450 o          1 3P0      -0.409000
     29 C29         -1.5790    -1.0370    -1.5110 c3         1 3P0       0.156000
     30 C30         -1.6430    -2.1450    -0.6700 c2         1 3P0      -0.265000
     31 C31         -2.5150    -3.1730    -0.9770 c2         1 3P0      -0.016000
     32 C32         -3.3010    -3.0590    -2.1230 c2         1 3P0      -0.169000
     33 C33         -3.1830    -1.9250    -2.9140 c2         1 3P0      -0.096000
     34 N34         -2.3400    -0.9630    -2.5910 n2         1 3P0      -0.046000
     35 N35         -4.1970    -4.0760    -2.4720 n3         1 3P0       0.049000
     36 C36         -3.5060    -5.3670    -2.5980 c3         1 3P0      -0.013000
     37 C37         -4.5310    -6.4630    -2.9010 c3         1 3P0      -0.621000
     38 N38         -5.2490    -6.1300    -4.1390 n3         1 3P0       0.066000
     39 C39         -5.9390    -4.8390    -4.0130 c3         1 3P0      -0.328000
     40 C40         -4.9150    -3.7430    -3.7110 DU         1 3P0       0.215000
     41 C41         10.1410     7.0650    -1.6130 c3         1 3P0       0.172000
     42 C42         11.5110     6.7500    -1.1760 c1         1 3P0      -0.151000
     43 C43         10.1440     7.3820    -3.1100 c3         1 3P0      -0.159000
     44 C44          9.6240     8.2760    -0.8350 c3         1 3P0      -0.159000
     45 N45         12.5750     6.5100    -0.8570 n1         1 3P0      -0.044000
     46 C46         -6.1890    -7.1980    -4.5060 c3         1 3P0      -0.113000
     47 F47          7.1330     3.5820    -3.2010 f          1 3P0      -0.071000
     48 H1           1.9290     0.2040    -0.9030 ha         1 3P0       0.135000
     49 H2           1.8670     0.2480     3.3210 h4         1 3P0       0.140000
     50 H3          -1.0520    -0.9280    -1.3050 DU         1 3P0       0.177000
     51 H4           3.5090    -1.9640     1.7140 ha         1 3P0       0.115000
     52 H5           6.1460    -2.0150     2.0060 ha         1 3P0       0.105000
     53 H6           7.3400     0.2300     1.0710 ha         1 3P0       0.123000
     54 H7           6.6260     4.3210     1.9010 h1         1 3P0       0.101000
     55 H8           6.3180     2.7130     2.6380 h1         1 3P0       0.101000
     56 H9           8.8930     3.1750     1.9890 hc         1 3P0       0.073000
     57 H10          7.8490     4.5980     2.2640 hc         1 3P0       0.073000
     58 H11          9.1350     6.4080     0.3590 ha         1 3P0       0.146000
     59 H12          8.8370     5.7050    -3.3670 ha         1 3P0       0.154000
     60 H13          4.1040     3.1550     0.0840 h1         1 3P0       0.061500
     61 H14          2.4810     2.1640     0.3410 h1         1 3P0       0.061500
     62 H15          2.4920     3.7440     1.7460 ho         1 3P0       0.199000
     63 H16         -0.5410    -0.9810     4.0800 h1         1 3P0       0.079333
     64 H17         -1.6530     0.4620     3.3090 h1         1 3P0       0.079333
     65 H18         -0.1390     0.7770     4.1170 h1         1 3P0       0.079333
     66 H19         -0.8400    -2.0690     0.0530 ha         1 3P0       0.129000
     67 H20         -2.5290    -4.1720    -0.5580 ha         1 3P0       0.124000
     68 H21         -4.0160    -1.7050    -3.5700 h4         1 3P0       0.128000
     69 H22         -2.9010    -5.5570    -1.7200 h1         1 3P0       0.045500
     70 H23         -2.8540    -4.9480    -3.3550 h1         1 3P0       0.045500
     71 H24         -5.2120    -6.1480    -3.6820 h1         1 3P0       0.189500
     72 H25         -4.2280    -7.4800    -2.6840 h1         1 3P0       0.189500
     73 H27         -6.6390    -5.0530    -4.8130 h1         1 3P0       0.121000
     74 H28         -5.0620    -4.2190    -4.1510 DU         1 3P0       0.047000
     75 H29         -4.1650    -4.0480    -4.4310 ha         1 3P0      -0.004000
     76 H30         -5.1050    -2.7690    -4.1450 ha         1 3P0      -0.004000
     77 H31         11.1820     7.2180    -3.3700 hc         1 3P0       0.066333
     78 H32          9.7020     8.3710    -3.1300 hc         1 3P0       0.066333
     79 H33          9.3130     6.9420    -3.6480 hc         1 3P0       0.066333
     80 H34         10.1710     8.3710     0.0940 hc         1 3P0       0.066333
     81 H35          9.6960     9.2400    -1.3250 hc         1 3P0       0.066333
     82 H36          8.6710     8.4200    -0.3400 hc         1 3P0       0.066333
     83 H37         -6.6580    -7.5290    -3.5880 h1         1 3P0       0.079333
     84 H38         -6.7890    -6.8550    -5.3410 h1         1 3P0       0.079333
     85 H39         -5.3310    -7.8070    -4.7630 h1         1 3P0       0.079333
@<TRIPOS>BOND
     1     1     2 1   
     2     1     5 1   
     3     1     7 1   
     4     2     3 1   
     5     2    48 1   
     6     3     4 1   
     7     3     8 1   
     8     4     6 1   
     9     4    49 1   
    10     5     6 1   
    11     5    28 1   
    12     6    27 1   
    13     7    29 1   
    14     7    50 1   
    15     8     9 1   
    16     8    13 1   
    17     9    10 1   
    18     9    51 1   
    19    10    11 1   
    20    10    52 1   
    21    11    12 1   
    22    11    53 1   
    23    12    13 1   
    24    12    14 1   
    25    13    25 1   
    26    14    15 1   
    27    14    17 1   
    28    15    16 1   
    29    15    54 1   
    30    15    55 1   
    31    16    19 1   
    32    16    56 1   
    33    16    57 1   
    34    17    18 1   
    35    17    24 1   
    36    18    19 1   
    37    18    23 1   
    38    19    20 1   
    39    20    21 1   
    40    20    58 1   
    41    21    22 1   
    42    21    41 1   
    43    22    23 1   
    44    22    59 1   
    45    23    47 1   
    46    25    26 1   
    47    25    60 1   
    48    25    61 1   
    49    26    62 1   
    50    27    63 1   
    51    27    64 1   
    52    27    65 1   
    53    29    30 1   
    54    29    34 1   
    55    29    50 1   
    56    30    31 1   
    57    30    66 1   
    58    31    32 1   
    59    31    67 1   
    60    32    33 1   
    61    32    35 1   
    62    33    34 1   
    63    33    68 1   
    64    35    36 1   
    65    35    40 1   
    66    36    37 1   
    67    36    69 1   
    68    36    70 1   
    69    37    38 1   
    70    37    71 1   
    71    37    72 1   
    72    38    39 1   
    73    38    46 1   
    74    39    40 1   
    75    39    73 1   
    76    39    74 1   
    77    40    74 1   
    78    40    75 1   
    79    40    76 1   
    80    41    42 1   
    81    41    43 1   
    82    41    44 1   
    83    42    45 1   
    84    43    77 1   
    85    43    78 1   
    86    43    79 1   
    87    44    80 1   
    88    44    81 1   
    89    44    82 1   
    90    46    83 1   
    91    46    84 1   
    92    46    85 1   
@<TRIPOS>SUBSTRUCTURE
     1 3P0         1 TEMP              0 ****  ****    0 ROOT
