@<TRIPOS>MOLECULE
molecule
   85    90     1     0     0
SMALL
bcc


@<TRIPOS>ATOM
      1 C1           0.0000     0.0000     0.0000 cc         1 3P0      -0.091200
      2 C2           1.3660     0.0000     0.0000 cd         1 3P0      -0.011000
      3 C3           2.0530     0.0000     1.2330 cd         1 3P0      -0.156200
      4 C4           1.3490    -0.0000     2.4020 cc         1 3P0       0.020600
      5 C5          -0.6920    -0.0010     1.2320 c          1 3P0       0.654700
      6 N6          -0.0080    -0.0000     2.3920 n          1 3P0      -0.345000
      7 N7          -0.7070     0.0070    -1.2080 nu         1 3P0      -0.768700
      8 C8           3.5370     0.0000     1.2580 ca         1 3P0      -0.038800
      9 C9           4.2300    -1.1670     1.5760 ca         1 3P0      -0.117000
     10 C10          5.6110    -1.1650     1.5990 ca         1 3P0      -0.088000
     11 C11          6.3100    -0.0100     1.3070 ca         1 3P0      -0.124000
     12 C12          5.6270     1.1580     0.9880 ca         1 3P0       0.056600
     13 C13          4.2410     1.1630     0.9590 ca         1 3P0      -0.066300
     14 N14          6.3380     2.3260     0.6930 n          1 3P0      -0.385000
     15 C15          6.6890     3.2470     1.7720 c3         1 3P0       0.057000
     16 C16          8.1020     3.7940     1.5830 c3         1 3P0      -0.074100
     17 C17          6.6940     2.5820    -0.5810 c          1 3P0       0.714100
     18 C18          7.5820     3.7250    -0.8670 ca         1 3P0      -0.185600
     19 C19          8.2660     4.3320     0.1860 ca         1 3P0       0.015700
     20 C20          9.0870     5.4100    -0.0600 ca         1 3P0      -0.167000
     21 C21          9.2460     5.8810    -1.3530 ca         1 3P0      -0.062300
     22 C22          8.5880     5.2720    -2.4050 ca         1 3P0      -0.203000
     23 C23          7.7640     4.1870    -2.1720 ca         1 3P0       0.217900
     24 O24          6.2890     1.8770    -1.4850 o          1 3P0      -0.608500
     25 C25          3.4980     2.4260     0.6080 c3         1 3P0       0.193700
     26 O26          3.2420     3.1740     1.7980 oh         1 3P0      -0.663800
     27 C27         -0.7390    -0.0010     3.6620 c3         1 3P0       0.081300
     28 O28         -1.9120    -0.0000     1.2450 o          1 3P0      -0.635500
     29 C29         -1.5790    -1.0370    -1.5110 ca         1 3P0       0.663200
     30 C30         -1.6430    -2.1450    -0.6700 ca         1 3P0      -0.348300
     31 C31         -2.5150    -3.1730    -0.9770 ca         1 3P0      -0.050000
     32 C32         -3.3010    -3.0590    -2.1230 ca         1 3P0      -0.063700
     33 C33         -3.1830    -1.9250    -2.9140 ca         1 3P0       0.391200
     34 N34         -2.3400    -0.9630    -2.5910 nb         1 3P0      -0.673000
     35 N35         -4.1970    -4.0760    -2.4720 nh         1 3P0      -0.592000
     36 C36         -3.5060    -5.3670    -2.5980 c3         1 3P0       0.301300
     37 C37         -4.5310    -6.4630    -2.9010 c3         1 3P0      -0.226700
     38 N38         -5.2490    -6.1300    -4.1390 n3         1 3P0      -0.761600
     39 C39         -5.9390    -4.8390    -4.0130 c3         1 3P0      -0.226700
     40 C40         -4.9150    -3.7430    -3.7110 c3         1 3P0       0.301300
     41 C41         10.1410     7.0650    -1.6130 c3         1 3P0       0.073400
     42 C42         11.5110     6.7500    -1.1760 c1         1 3P0       0.224700
     43 C43         10.1440     7.3820    -3.1100 c3         1 3P0      -0.113100
     44 C44          9.6240     8.2760    -0.8350 c3         1 3P0      -0.113100
     45 N45         12.5750     6.5100    -0.8570 n1         1 3P0      -0.355800
     46 C46         -6.1890    -7.1980    -4.5060 c3         1 3P0       0.151100
     47 F47          7.1330     3.5820    -3.2010 f          1 3P0      -0.105900
     48 H1           1.9290     0.2040    -0.9030 ha         1 3P0       0.165000
     49 H2           1.8670     0.2480     3.3210 h4         1 3P0       0.168000
     50 H3          -1.0520    -0.9280    -1.3050 hn         1 3P0       0.487800
     51 H4           3.5090    -1.9640     1.7140 ha         1 3P0       0.143000
     52 H5           6.1460    -2.0150     2.0060 ha         1 3P0       0.138000
     53 H6           7.3400     0.2300     1.0710 ha         1 3P0       0.155000
     54 H7           6.6260     4.3210     1.9010 h1         1 3P0       0.083700
     55 H8           6.3180     2.7130     2.6380 h1         1 3P0       0.083700
     56 H9           8.8930     3.1750     1.9890 hc         1 3P0       0.063200
     57 H10          7.8490     4.5980     2.2640 hc         1 3P0       0.063200
     58 H11          9.1350     6.4080     0.3590 ha         1 3P0       0.163000
     59 H12          8.8370     5.7050    -3.3670 ha         1 3P0       0.168000
     60 H13          4.1040     3.1550     0.0840 h1         1 3P0       0.056700
     61 H14          2.4810     2.1640     0.3410 h1         1 3P0       0.056700
     62 H15          2.4920     3.7440     1.7460 ho         1 3P0       0.412000
     63 H16         -0.5410    -0.9810     4.0800 h1         1 3P0       0.073033
     64 H17         -1.6530     0.4620     3.3090 h1         1 3P0       0.073033
     65 H18         -0.1390     0.7770     4.1170 h1         1 3P0       0.073033
     66 H19         -0.8400    -2.0690     0.0530 ha         1 3P0       0.149000
     67 H20         -2.5290    -4.1720    -0.5580 ha         1 3P0       0.151000
     68 H21         -4.0160    -1.7050    -3.5700 h4         1 3P0       0.026100
     69 H22         -2.9010    -5.5570    -1.7200 h1         1 3P0       0.020200
     70 H23         -2.8540    -4.9480    -3.3550 h1         1 3P0       0.020200
     71 H24         -5.2120    -6.1480    -3.6820 h1         1 3P0       0.178450
     72 H25         -4.2280    -7.4800    -2.6840 h1         1 3P0       0.178450
     73 H27         -6.6390    -5.0530    -4.8130 h1         1 3P0       0.178450
     74 H28         -5.0620    -4.2190    -4.1510 h1         1 3P0       0.178450
     75 H29         -4.1650    -4.0480    -4.4310 h1         1 3P0       0.020200
     76 H30         -5.1050    -2.7690    -4.1450 h1         1 3P0       0.020200
     77 H31         11.1820     7.2180    -3.3700 hc         1 3P0       0.056033
     78 H32          9.7020     8.3710    -3.1300 hc         1 3P0       0.056033
     79 H33          9.3130     6.9420    -3.6480 hc         1 3P0       0.056033
     80 H34         10.1710     8.3710     0.0940 hc         1 3P0       0.056033
     81 H35          9.6960     9.2400    -1.3250 hc         1 3P0       0.056033
     82 H36          8.6710     8.4200    -0.3400 hc         1 3P0       0.056033
     83 H37         -6.6580    -7.5290    -3.5880 h1         1 3P0       0.072367
     84 H38         -6.7890    -6.8550    -5.3410 h1         1 3P0       0.072367
     85 H39         -5.3310    -7.8070    -4.7630 h1         1 3P0       0.072367
@<TRIPOS>BOND
     1    46    38 1   
     2    37    38 1   
     3    37    36 1   
     4    38    39 1   
     5    36    35 1   
     6    39    40 1   
     7    35    40 1   
     8    35    32 1   
     9    31    32 ar  
    10    31    30 ar  
    11    32    33 ar  
    12    30    29 ar  
    13    33    34 ar  
    14    29    34 ar  
    15    29     7 1   
    16     7     1 1   
    17     1     2 2   
    18     1     5 1   
    19    28     5 2   
    20     2     3 1   
    21     5     6 1   
    22     6     4 1   
    23     6    27 1   
    24     3     4 2   
    25     3     8 1   
    26     9     8 ar  
    27     9    10 ar  
    28     8    13 ar  
    29    10    11 ar  
    30    13    25 1   
    31    13    12 ar  
    32    25    26 1   
    33    11    12 ar  
    34    12    14 1   
    35    15    14 1   
    36    15    16 1   
    37    14    17 1   
    38    16    19 1   
    39    17    24 2   
    40    17    18 1   
    41    19    18 ar  
    42    19    20 ar  
    43    18    23 ar  
    44    20    21 ar  
    45    23    47 1   
    46    23    22 ar  
    47    21    22 ar  
    48    21    41 1   
    49    45    42 3   
    50    42    41 1   
    51    44    41 1   
    52    41    43 1   
    53     2    48 1   
    54     4    49 1   
    55     7    50 1   
    56     9    51 1   
    57    10    52 1   
    58    11    53 1   
    59    15    54 1   
    60    15    55 1   
    61    16    56 1   
    62    16    57 1   
    63    20    58 1   
    64    22    59 1   
    65    25    60 1   
    66    25    61 1   
    67    26    62 1   
    68    27    63 1   
    69    27    64 1   
    70    27    65 1   
    71    30    66 1   
    72    31    67 1   
    73    33    68 1   
    74    36    69 1   
    75    36    70 1   
    76    37    71 1   
    77    37    72 1   
    78    39    73 1   
    79    39    74 1   
    80    40    75 1   
    81    40    76 1   
    82    43    77 1   
    83    43    78 1   
    84    43    79 1   
    85    44    80 1   
    86    44    81 1   
    87    44    82 1   
    88    46    83 1   
    89    46    84 1   
    90    46    85 1   
@<TRIPOS>SUBSTRUCTURE
     1 3P0         1 TEMP              0 ****  ****    0 ROOT
