@<TRIPOS>MOLECULE
3P1
   52    56     1     0     0
SMALL
bcc


@<TRIPOS>ATOM
      1 N1           0.0000     0.0000     0.0000 nb         1 3P1      -0.647000
      2 C2           1.3210     0.0000     0.0000 ca         1 3P1       0.608900
      3 N3           2.0270     0.0000     1.1130 nb         1 3P1      -0.601000
      4 C4          -0.6880    -0.0000     1.1370 ca         1 3P1       0.567200
      5 N5           1.8570    -0.0020     3.6020 na         1 3P1       0.163000
      6 C6           0.7470    -0.0020     4.4010 cc         1 3P1       0.364700
      7 N7          -0.3330    -0.0010     3.6590 nd         1 3P1      -0.584100
      8 C8           0.0220    -0.0010     2.3490 ca         1 3P1      -0.134200
      9 C9           1.4260    -0.0010     2.2960 ca         1 3P1       0.230800
     10 C10          3.2510    -0.0020     4.0550 c3         1 3P1       0.147800
     11 O11          4.0320     0.9320     3.2770 os         1 3P1      -0.360600
     12 C12          5.4030     0.5080     3.4400 c3         1 3P1       0.154100
     13 C13          5.3500    -1.0350     3.3770 c3         1 3P1       0.137100
     14 C14          3.9020    -1.3780     3.7910 c3         1 3P1       0.123100
     15 N15         -2.0740    -0.0000     1.1270 nv         1 3P1      -0.641500
     16 N16          0.7620    -0.0030     5.7810 nu         1 3P1      -0.455200
     17 C17         -0.4990    -0.0030     6.5280 c3         1 3P1       0.134500
     18 C18         -0.2080    -0.0030     8.0060 ca         1 3P1       0.344600
     19 N19          0.0140    -1.1450     8.6130 nb         1 3P1      -0.543000
     20 C20          0.0860     1.2290    10.0310 ca         1 3P1      -0.053000
     21 C21         -0.1750     1.2100     8.6910 ca         1 3P1      -0.206300
     22 C22          0.3180     0.0010    10.6810 ca         1 3P1      -0.143300
     23 C23          0.2760    -1.1950     9.9220 ca         1 3P1       0.367600
     24 C24          0.5070    -2.4230    10.5690 ca         1 3P1      -0.136300
     25 C25          0.7660    -2.4430    11.9040 ca         1 3P1      -0.093000
     26 C26          0.8080    -1.2660    12.6470 ca         1 3P1      -0.092000
     27 C27          0.5880    -0.0590    12.0560 ca         1 3P1      -0.084000
     28 C28          6.2690     1.0610     2.3070 c3         1 3P1       0.224400
     29 O29          6.3390     2.4840     2.4110 oh         1 3P1      -0.579800
     30 O30          6.2820    -1.6060     4.2970 oh         1 3P1      -0.553800
     31 O31          3.8950    -2.1710     4.9800 oh         1 3P1      -0.556800
     32 H2           1.8430     0.0000    -0.9490 h5         1 3P1      -0.003900
     33 H10          3.3110     0.2450     5.1080 h2         1 3P1       0.047700
     34 H12          5.7820     0.8300     4.4020 h1         1 3P1       0.045700
     35 H13          5.5460    -1.3780     2.3680 h1         1 3P1       0.019700
     36 H14          3.3900    -1.8880     2.9840 h1         1 3P1       0.032700
     37 HN15        -2.5740    -0.8670     1.1050 hn         1 3P1       0.277300
     38 HN1A        -2.5740     0.8660     1.1200 hn         1 3P1       0.277300
     39 HN16         1.6340    -0.0110     6.2720 hn         1 3P1       0.299800
     40 H17         -1.0700    -0.8880     6.2720 h1         1 3P1       0.035200
     41 H17A        -1.0700     0.8810     6.2720 h1         1 3P1       0.035200
     42 H20          0.1150     2.1630    10.5790 ha         1 3P1       0.113000
     43 H21         -0.4030     2.1320     8.1710 ha         1 3P1       0.119000
     44 H24          0.4780    -3.3480    10.0060 ha         1 3P1       0.118000
     45 H25          0.9440    -3.3910    12.3980 ha         1 3P1       0.105000
     46 H26          1.0160    -1.3110    13.7090 ha         1 3P1       0.104000
     47 H27          0.6230     0.8500    12.6450 ha         1 3P1       0.108000
     48 H28          7.2670     0.6440     2.3780 h1         1 3P1      -0.003800
     49 H28A         5.8330     0.7890     1.3530 h1         1 3P1      -0.003800
     50 HO29         7.0320     2.8070     1.8580 ho         1 3P1       0.390000
     51 HO30         6.8510    -2.2010     3.8400 ho         1 3P1       0.387000
     52 HO31         3.6360    -3.0530     4.7680 ho         1 3P1       0.395000
@<TRIPOS>BOND
     1     1     2 ar  
     2     1     4 ar  
     3     2     3 ar  
     4     2    32 1   
     5     3     9 ar  
     6     4     8 ar  
     7     4    15 1   
     8     5     6 1   
     9     5     9 1   
    10     5    10 1   
    11     6     7 2   
    12     6    16 1   
    13     7     8 1   
    14     8     9 ar  
    15    10    11 1   
    16    10    14 1   
    17    10    33 1   
    18    11    12 1   
    19    12    13 1   
    20    12    28 1   
    21    12    34 1   
    22    13    14 1   
    23    13    30 1   
    24    13    35 1   
    25    14    31 1   
    26    14    36 1   
    27    15    37 1   
    28    15    38 1   
    29    16    17 1   
    30    16    39 1   
    31    17    18 1   
    32    17    40 1   
    33    17    41 1   
    34    18    19 ar  
    35    18    21 ar  
    36    19    23 ar  
    37    20    21 ar  
    38    20    22 ar  
    39    20    42 1   
    40    21    43 1   
    41    22    23 ar  
    42    22    27 ar  
    43    23    24 ar  
    44    24    25 ar  
    45    24    44 1   
    46    25    26 ar  
    47    25    45 1   
    48    26    27 ar  
    49    26    46 1   
    50    27    47 1   
    51    28    29 1   
    52    28    48 1   
    53    28    49 1   
    54    29    50 1   
    55    30    51 1   
    56    31    52 1   
@<TRIPOS>SUBSTRUCTURE
     1 3P1         1 TEMP              0 ****  ****    0 ROOT
