@<TRIPOS>MOLECULE
3P2
   50    53     1     0     0
SMALL
bcc


@<TRIPOS>ATOM
      1 O1          0.2400   -0.6650    0.1100 os        1 3P2     -0.118100
      2 C2          1.6350   -0.4320    0.1210 cc        1 3P2      0.281000
      3 C3          2.0600   -0.4890    1.4420 cd        1 3P2     -0.275600
      4 C4          0.8320   -0.7760    2.2020 cd        1 3P2      0.336600
      5 C5          0.7420   -0.9450    3.6640 c3        1 3P2     -0.135400
      6 C6          2.2700   -0.1930   -1.1720 c3        1 3P2     -0.143400
      7 C8          3.3940   -0.3150    1.9580 ca        1 3P2      0.001000
      8 C13         4.4970   -0.8000    1.2380 ca        1 3P2     -0.124000
      9 C14         7.3550    0.1850    3.4630 cc        1 3P2      0.080400
     10 C16         9.1510    1.1690    4.2430 cd        1 3P2     -0.162600
     11 C18         8.3290   -0.8610    3.6150 cd        1 3P2      0.018900
     12 N1         -0.1980   -0.8660    1.3360 nc        1 3P2     -0.364300
     13 C9          3.6180    0.3510    3.1720 ca        1 3P2     -0.124000
     14 C10         4.9100    0.5170    3.6620 ca        1 3P2     -0.112000
     15 C11         6.0060    0.0130    2.9480 ca        1 3P2     -0.014800
     16 C12         5.7900   -0.6360    1.7250 ca        1 3P2     -0.112000
     17 N2          7.8690    1.4140    3.8570 nc        1 3P2     -0.241600
     18 N3          9.4820   -0.2190    4.0980 na        1 3P2      0.029700
     19 C25        10.1910    2.0470    4.7500 cd        1 3P2      0.455200
     20 N26        11.3950    1.6160    5.0580 nc        1 3P2     -0.648000
     21 C27        11.6690    0.2730    4.8870 cc        1 3P2      0.331200
     22 C28        10.7520   -0.6530    4.4170 cd        1 3P2     -0.163600
     23 N29         8.2890   -2.2320    3.3030 nh        1 3P2     -0.677000
     24 C30         7.8320   -3.1430    4.3770 c3        1 3P2      0.187200
     25 C31         8.2330   -4.5800    3.9970 c3        1 3P2     -0.102100
     26 C32         8.4750   -2.8170    5.7300 c3        1 3P2     -0.102100
     27 C33         6.3060   -3.1210    4.5670 c3        1 3P2     -0.102100
     28 H1          0.5380    0.0440    4.1480 hc        1 3P2      0.059700
     29 H2         -0.0790   -1.6510    3.9450 hc        1 3P2      0.059700
     30 H3          1.7110   -1.3430    4.0570 hc        1 3P2      0.059700
     31 H4          2.5630   -1.1680   -1.6390 hc        1 3P2      0.068033
     32 H5          1.5660    0.3330   -1.8660 hc        1 3P2      0.068033
     33 H6          3.1880    0.4320   -1.0340 hc        1 3P2      0.068033
     34 H7          4.3340   -1.3110    0.2760 ha        1 3P2      0.137500
     35 H8          2.7640    0.7580    3.7360 ha        1 3P2      0.137500
     36 H9          5.0760    1.0550    4.6080 ha        1 3P2      0.142500
     37 H10         6.6440   -1.0000    1.1350 ha        1 3P2      0.142500
     38 H11         9.9580    3.1190    4.8770 h4        1 3P2      0.052100
     39 H12        12.6950   -0.0340    5.1490 h4        1 3P2      0.040100
     40 H13        10.9750   -1.7220    4.2680 h4        1 3P2      0.184000
     41 H14         7.7130   -2.3650    2.4890 hn        1 3P2      0.391800
     42 H15         7.7740   -4.8790    3.0250 hc        1 3P2      0.043367
     43 H16         9.3420   -4.6710    3.9140 hc        1 3P2      0.043367
     44 H17         7.8720   -5.2760    4.7910 hc        1 3P2      0.043367
     45 H18         8.1740   -3.5940    6.4730 hc        1 3P2      0.043367
     46 H19         8.1320   -1.8210    6.1010 hc        1 3P2      0.043367
     47 H20         9.5880   -2.8130    5.6530 hc        1 3P2      0.043367
     48 H21         5.7910   -3.4990    3.6520 hc        1 3P2      0.043367
     49 H22         5.9510   -2.0830    4.7750 hc        1 3P2      0.043367
     50 H23         6.0270   -3.7750    5.4260 hc        1 3P2      0.043367
@<TRIPOS>BOND
     1    1    2 1
     2    1   12 1
     3    2    3 2
     4    2    6 1
     5    3    4 1
     6    3    7 1
     7    4    5 1
     8    4   12 2
     9    5   28 1
    10    5   29 1
    11    5   30 1
    12    6   31 1
    13    6   32 1
    14    6   33 1
    15    7    8 ar
    16    7   13 ar
    17    8   16 ar
    18    8   34 1
    19    9   11 2
    20    9   15 1
    21    9   17 1
    22   10   17 2
    23   10   18 1
    24   10   19 1
    25   11   18 1
    26   11   23 1
    27   13   14 ar
    28   13   35 1
    29   14   15 ar
    30   14   36 1
    31   15   16 ar
    32   16   37 1
    33   18   22 1
    34   19   20 2
    35   19   38 1
    36   20   21 1
    37   21   22 2
    38   21   39 1
    39   22   40 1
    40   23   24 1
    41   23   41 1
    42   24   25 1
    43   24   26 1
    44   24   27 1
    45   25   42 1
    46   25   43 1
    47   25   44 1
    48   26   45 1
    49   26   46 1
    50   26   47 1
    51   27   48 1
    52   27   49 1
    53   27   50 1
@<TRIPOS>SUBSTRUCTURE
     1 3P2         1 TEMP              0 ****  ****    0 ROOT
