@<TRIPOS>MOLECULE
molecule
   45    46     1     0     0
SMALL
bcc


@<TRIPOS>ATOM
      1 O01          0.0000     0.0000     0.0000 o          1 3P3      -0.577100
      2 C02          1.2130     0.0000     0.0000 c          1 3P3       0.665100
      3 N03          1.8860     0.0050    -1.1680 ns         1 3P3      -0.466400
      4 O04          1.1810    -0.0870    -2.3910 oh         1 3P3      -0.360100
      5 C05          1.9670     0.0000     1.3050 c3         1 3P3       0.063700
      6 N06          1.1500     0.6370     2.3410 ns         1 3P3      -0.569900
      7 C07          1.7420     1.2060     3.4090 c          1 3P3       0.678700
      8 O08          2.9530     1.1890     3.5160 o          1 3P3      -0.588100
      9 C09          0.9190     1.8470     4.4540 ca         1 3P3      -0.136600
     10 C10          1.5340     2.4370     5.5640 ca         1 3P3      -0.088500
     11 C11          0.7740     3.0310     6.5290 ca         1 3P3      -0.115500
     12 C12         -0.6220     3.0510     6.4090 ca         1 3P3       0.047000
     13 C13         -1.2360     2.4610     5.2970 ca         1 3P3      -0.115500
     14 C14         -0.4730     1.8710     4.3300 ca         1 3P3      -0.088500
     15 C15         -1.4190     3.6740     7.4220 cg         1 3P3      -0.093000
     16 C16         -2.0740     4.2010     8.2400 ch         1 3P3      -0.009000
     17 C17         -2.8650     4.5980     9.4500 ch         1 3P3      -0.065000
     18 C18         -3.6910     5.1820    10.3130 cg         1 3P3      -0.100000
     19 C19         -4.3600     5.7450    11.6010 ca         1 3P3       0.067000
     20 C20         -5.6330     6.3740    11.1590 ca         1 3P3      -0.116000
     21 C21         -6.2600     6.8840    12.2490 ca         1 3P3      -0.125000
     22 C22         -5.7710     6.8170    13.5700 ca         1 3P3      -0.124000
     23 C23         -4.5630     6.2240    14.0120 ca         1 3P3      -0.125000
     24 C24         -3.9850     5.7130    12.7410 ca         1 3P3      -0.116000
     25 C25          2.2770    -1.4410     1.7140 c3         1 3P3       0.133100
     26 C26          3.2230    -2.0710     0.6900 c3         1 3P3      -0.131100
     27 O27          2.8970    -1.4470     3.0020 oh         1 3P3      -0.578800
     28 HN03         2.8860     0.0410    -1.1680 hn         1 3P3       0.327500
     29 HO04         1.7150     0.2570    -3.0880 ho         1 3P3       0.402000
     30 H05          2.8930     0.5490     1.1860 h1         1 3P3       0.096700
     31 HN06         0.1520     0.5820     2.2960 hn         1 3P3       0.335500
     32 H10          2.6100     2.3870     5.6770 ha         1 3P3       0.148000
     33 H11          1.2500     3.4870     7.3880 ha         1 3P3       0.144000
     34 H13         -2.3150     2.4760     5.2020 ha         1 3P3       0.144000
     35 H14         -0.9500     1.3830     3.4880 ha         1 3P3       0.148000
     36 H20         -6.0210     6.3730    10.1480 ha         1 3P3       0.140500
     37 H21         -7.2700     7.2500    12.1080 ha         1 3P3       0.152000
     38 H22         -6.3910     7.2950    14.3190 ha         1 3P3       0.116000
     39 H23         -4.1200     6.2020    15.0000 ha         1 3P3       0.152000
     40 H24         -3.0460     5.1920    12.8870 ha         1 3P3       0.140500
     41 H25          1.3560    -2.0110     1.7540 h1         1 3P3       0.045700
     42 H26          4.0090    -1.3660     0.4430 hc         1 3P3       0.046033
     43 H26A         3.6620    -2.9690     1.1080 hc         1 3P3       0.046033
     44 H26B         2.6700    -2.3230    -0.2060 hc         1 3P3       0.046033
     45 HO27         2.7690    -2.2880     3.4090 ho         1 3P3       0.403000
@<TRIPOS>BOND
     1     1     2 2   
     2     2     3 1   
     3     2     5 1   
     4     3     4 1   
     5     5     6 1   
     6     5    25 1   
     7     6     7 1   
     8     7     8 2   
     9     7     9 1   
    10     9    10 ar  
    11     9    14 ar  
    12    10    11 ar  
    13    11    12 ar  
    14    12    13 ar  
    15    12    15 1   
    16    13    14 ar  
    17    15    16 3   
    18    16    17 1   
    19    17    18 3   
    20    18    19 1   
    21    19    20 ar  
    22    19    24 ar  
    23    20    21 ar  
    24    21    22 ar  
    25    22    23 ar  
    26    23    24 ar  
    27    25    26 1   
    28    25    27 1   
    29     3    28 1   
    30     4    29 1   
    31     5    30 1   
    32     6    31 1   
    33    10    32 1   
    34    11    33 1   
    35    13    34 1   
    36    14    35 1   
    37    20    36 1   
    38    21    37 1   
    39    22    38 1   
    40    23    39 1   
    41    24    40 1   
    42    25    41 1   
    43    26    42 1   
    44    26    43 1   
    45    26    44 1   
    46    27    45 1   
@<TRIPOS>SUBSTRUCTURE
     1 3P3         1 TEMP              0 ****  ****    0 ROOT
