@<TRIPOS>MOLECULE
3P4
   61    64     1     0     0
SMALL
bcc


@<TRIPOS>ATOM
      1 C1         -0.2320    0.2870   -0.1160 cc        1 3P4      0.104400
      2 C2          1.1880    0.5380   -0.0640 cc        1 3P4      0.060400
      3 C3         -0.6030   -0.0580    1.2300 cd        1 3P4     -0.121900
      4 N1         -1.1300    0.3410   -1.1590 nc        1 3P4     -0.556100
      5 N2          1.5830    0.3340    1.2550 na        1 3P4      0.002600
      6 C4          2.0710    0.9340   -1.1830 c3        1 3P4     -0.045100
      7 N3          0.5180   -0.0050    2.0270 na        1 3P4     -0.113400
      8 C5         -2.0030   -0.3880    1.5560 c         1 3P4      0.724100
      9 C6         -2.3900    0.0310   -0.8480 cd        1 3P4      0.610500
     10 C7          2.9150    0.4980    1.8180 cy        1 3P4     -0.027000
     11 C8          2.9490   -0.2030   -1.6510 c3        1 3P4     -0.102100
     12 N4         -2.8460   -0.3120    0.4400 n         1 3P4     -0.467400
     13 O1         -2.4060   -0.6950    2.6840 o         1 3P4     -0.556500
     14 C9         -3.4290    0.0480   -1.9000 ca        1 3P4     -0.345200
     15 C10         3.4210   -0.6790    2.7270 cy        1 3P4      0.129800
     16 C11         3.0110    1.3910    3.1060 cy        1 3P4      0.129800
     17 C12        -3.3720   -0.8490   -3.0050 ca        1 3P4      0.698600
     18 C13        -4.4810    0.9670   -1.8410 ca        1 3P4     -0.003000
     19 N5          3.2600    0.1800    3.9180 n3        1 3P4     -0.711600
     20 N6         -4.2960   -0.8370   -4.0070 nb        1 3P4     -0.722000
     21 O2         -2.3440   -1.7530   -2.9860 os        1 3P4     -0.450100
     22 C14        -5.4350    0.9860   -2.8650 ca        1 3P4     -0.199100
     23 C15         4.3710    0.2490    4.8450 c3        1 3P4      0.147800
     24 C16        -5.2880    0.0590   -3.9250 ca        1 3P4      0.491200
     25 C17        -2.2450   -2.6760   -4.0960 c3        1 3P4      0.142400
     26 C20        -6.5480    1.9310   -2.8380 ce        1 3P4      0.131900
     27 C18         4.6720   -1.0710    5.5330 c3        1 3P4     -0.098100
     28 C19        -1.0140   -3.5180   -3.7960 c3        1 3P4     -0.056200
     29 O3         -6.7630    2.4260   -1.5620 oh        1 3P4     -0.521100
     30 C21        -0.8580   -4.5770   -4.8230 c2        1 3P4     -0.181200
     31 C22         0.2750   -4.8070   -5.4800 c2        1 3P4     -0.197000
     32 C23        -7.2820    2.3040   -3.9000 c2        1 3P4     -0.297000
     33 H4C1        2.7050    1.8140   -0.8820 hc        1 3P4      0.099700
     34 H4C2        1.4080    1.2710   -2.0310 hc        1 3P4      0.099700
     35 H3          0.6270   -0.2160    3.0060 hn        1 3P4      0.392700
     36 H7          3.5970    0.7850    0.9790 h1        1 3P4      0.123700
     37 H8C1        3.5630    0.1420   -2.5200 hc        1 3P4      0.058033
     38 H8C2        3.6400   -0.5430   -0.8440 hc        1 3P4      0.058033
     39 H8C3        2.3310   -1.0730   -1.9830 hc        1 3P4      0.058033
     40 H4         -3.8140   -0.5380    0.5660 hn        1 3P4      0.371500
     41 H101        4.4700   -0.9780    2.4730 h1        1 3P4      0.085950
     42 H102        2.7790   -1.5900    2.7840 h1        1 3P4      0.085950
     43 H111        2.0830    1.9190    3.4300 h1        1 3P4      0.085950
     44 H112        3.8550    2.1230    3.0400 h1        1 3P4      0.085950
     45 H13        -4.5650    1.6790   -1.0030 ha        1 3P4      0.169000
     46 H151        4.0850    1.0140    5.6240 h1        1 3P4      0.050200
     47 H152        5.3140    0.6150    4.3390 h1        1 3P4      0.050200
     48 H16        -6.0170    0.0280   -4.7600 h4        1 3P4      0.048100
     49 H171       -3.1720   -3.3030   -4.1380 h1        1 3P4      0.067700
     50 H172       -2.1250   -2.0980   -5.0480 h1        1 3P4      0.067700
     51 H181        4.9610   -1.8550    4.7930 hc        1 3P4      0.051700
     52 H182        5.5220   -0.9170    6.2410 hc        1 3P4      0.051700
     53 H183        3.7890   -1.4350    6.1120 hc        1 3P4      0.051700
     54 H191       -1.1280   -3.9940   -2.7840 hc        1 3P4      0.055700
     55 H192       -0.1110   -2.8550   -3.7520 hc        1 3P4      0.055700
     56 HA         -7.5160    3.0360   -1.5980 ho        1 3P4      0.432000
     57 H21        -1.7580   -5.1910   -5.0010 ha        1 3P4      0.130000
     58 H221        1.1860   -4.2130   -5.3280 ha        1 3P4      0.118000
     59 H222        0.3670   -5.6140   -6.2210 ha        1 3P4      0.118000
     60 H231       -7.0910    1.9210   -4.9080 ha        1 3P4      0.136500
     61 H232       -8.1100    3.0190   -3.8150 ha        1 3P4      0.136500
@<TRIPOS>BOND
     1    1    2 1   
     2    1    3 2   
     3    1    4 1   
     4    2    5 2   
     5    2    6 1   
     6    3    7 1   
     7    3    8 1   
     8    4    9 2   
     9    5    7 1   
    10    5   10 1   
    11    6   11 1   
    12    6   33 1   
    13    6   34 1   
    14    7   35 1   
    15    8   12 1   
    16    8   13 2   
    17    9   12 1   
    18    9   14 1   
    19   10   15 1   
    20   10   16 1   
    21   10   36 1   
    22   11   37 1   
    23   11   38 1   
    24   11   39 1   
    25   12   40 1   
    26   14   17 ar  
    27   14   18 ar  
    28   15   19 1   
    29   15   41 1   
    30   15   42 1   
    31   16   19 1   
    32   16   43 1   
    33   16   44 1   
    34   17   20 ar  
    35   17   21 1   
    36   18   22 ar  
    37   18   45 1   
    38   19   23 1   
    39   20   24 ar  
    40   21   25 1   
    41   22   24 ar  
    42   22   26 1   
    43   23   27 1   
    44   23   46 1   
    45   23   47 1   
    46   24   48 1   
    47   25   28 1   
    48   25   49 1   
    49   25   50 1   
    50   26   29 1   
    51   26   32 2   
    52   27   51 1   
    53   27   52 1   
    54   27   53 1   
    55   28   30 1   
    56   28   54 1   
    57   28   55 1   
    58   29   56 1   
    59   30   31 2   
    60   30   57 1   
    61   31   58 1   
    62   31   59 1   
    63   32   60 1   
    64   32   61 1   
@<TRIPOS>SUBSTRUCTURE
     1 3P4         1 TEMP              0 ****  ****    0 ROOT
