@<TRIPOS>MOLECULE
molecule
   55    58     1     0     0
SMALL
bcc


@<TRIPOS>ATOM
      1 Br1          0.0000     0.0000     0.0000 br         1 3P5      -0.073100
      2 C2           1.8900     0.0000     0.0000 ca         1 3P5      -0.039900
      3 C3           2.5850     0.0000     1.2020 ca         1 3P5       0.130100
      4 C4           3.9720    -0.0000     1.1980 ca         1 3P5      -0.151000
      5 C6           4.6590    -0.0000    -0.0010 ca         1 3P5      -0.110000
      6 C8           3.9650     0.0010    -1.1970 ca         1 3P5      -0.095300
      7 C9           2.5830    -0.0050    -1.1960 ca         1 3P5      -0.083000
      8 C11          4.7170     0.0030    -2.5030 c3         1 3P5      -0.022100
      9 C14          4.9720    -1.4390    -2.9460 c3         1 3P5      -0.070700
     10 C16          5.6110    -1.4370    -4.3320 c3         1 3P5       0.144100
     11 C18          5.6490    -2.8490    -4.9090 c3         1 3P5       0.180500
     12 C20          6.6610    -3.7010    -4.1400 c3         1 3P5      -0.254600
     13 S23          6.1090    -3.8640    -2.4170 s6         1 3P5       1.101000
     14 C24          5.9040    -2.1220    -1.9420 c3         1 3P5      -0.203600
     15 O27          7.1680    -4.4220    -1.6500 o          1 3P5      -0.606300
     16 O28          4.8350    -4.4940    -2.4040 o          1 3P5      -0.606300
     17 N29          6.0380    -2.7870    -6.3240 n7         1 3P5      -0.779200
     18 C31          7.4000    -2.2570    -6.4720 c3         1 3P5       0.197100
     19 C34          7.7640    -2.2080    -7.9340 ca         1 3P5      -0.086300
     20 C35          8.3670    -3.2990    -8.5320 ca         1 3P5      -0.117000
     21 C37          8.7000    -3.2550    -9.8730 ca         1 3P5      -0.042300
     22 C38          8.4310    -2.1200   -10.6150 ca         1 3P5      -0.126000
     23 C40          7.8270    -1.0300   -10.0170 ca         1 3P5      -0.124000
     24 C42          7.4890    -1.0760    -8.6770 ca         1 3P5      -0.108000
     25 C44          9.3570    -4.4440   -10.5260 cx         1 3P5      -0.094400
     26 C46         10.7400    -4.2340   -11.1470 cx         1 3P5      -0.132400
     27 C49          9.5160    -4.4160   -12.0470 cx         1 3P5      -0.132400
     28 O52          4.8500    -0.5940    -5.2000 oh         1 3P5      -0.570800
     29 O54          1.9070    -0.0010     2.3800 oh         1 3P5      -0.509100
     30 H4           4.5170    -0.0010     2.1350 ha         1 3P5       0.148000
     31 H6           5.7420     0.0020    -0.0040 ha         1 3P5       0.136000
     32 H9           2.0410    -0.0040    -2.1350 ha         1 3P5       0.153000
     33 H11          4.1310     0.5140    -3.2570 hc         1 3P5       0.058200
     34 H11A         5.6640     0.5140    -2.3740 hc         1 3P5       0.058200
     35 H14          4.0330    -1.9780    -2.9860 hc         1 3P5       0.090700
     36 H16          6.6220    -1.0570    -4.2550 h1         1 3P5       0.031700
     37 H18          4.6660    -3.2970    -4.8210 h1         1 3P5       0.097700
     38 H20          6.7250    -4.6830    -4.5940 h1         1 3P5       0.106200
     39 H20A         7.6310    -3.2200    -4.1650 h1         1 3P5       0.106200
     40 H24          5.4720    -2.0660    -0.9510 h1         1 3P5       0.107200
     41 H24A         6.8690    -1.6290    -1.9520 h1         1 3P5       0.107200
     42 HN29         5.9920    -3.7040    -6.7230 hn         1 3P5       0.366800
     43 H31          8.0970    -2.9000    -5.9480 h1         1 3P5       0.035200
     44 H31A         7.4460    -1.2580    -6.0550 h1         1 3P5       0.035200
     45 H35          8.5780    -4.1880    -7.9510 ha         1 3P5       0.129000
     46 H38          8.6940    -2.0850   -11.6660 ha         1 3P5       0.134000
     47 H40          7.6140    -0.1420   -10.5990 ha         1 3P5       0.132000
     48 H42          7.0160    -0.2210    -8.2080 ha         1 3P5       0.132000
     49 H44          9.1940    -5.4280   -10.1050 hc         1 3P5       0.086700
     50 H46         11.4110    -5.0820   -11.0920 hc         1 3P5       0.076700
     51 H46A        11.1310    -3.2250   -11.0880 hc         1 3P5       0.076700
     52 H49          9.4390    -5.3760   -12.5430 hc         1 3P5       0.076700
     53 H49A         9.1590    -3.5190   -12.5390 hc         1 3P5       0.076700
     54 HO52         5.3280     0.2020    -5.3630 ho         1 3P5       0.403000
     55 HO54         1.8130     0.8850     2.6890 ho         1 3P5       0.426000
@<TRIPOS>BOND
     1     1     2 1   
     2     7     2 ar  
     3     2     3 ar  
     4     3     4 ar  
     5     3    29 1   
     6     5     4 ar  
     7     4    30 1   
     8     6     5 ar  
     9     5    31 1   
    10     8     6 1   
    11     7     6 ar  
    12     7    32 1   
    13     8     9 1   
    14     8    33 1   
    15     8    34 1   
    16    10     9 1   
    17     9    14 1   
    18     9    35 1   
    19    28    10 1   
    20    10    11 1   
    21    10    36 1   
    22    17    11 1   
    23    11    12 1   
    24    11    37 1   
    25    12    13 1   
    26    12    38 1   
    27    12    39 1   
    28    14    13 1   
    29    13    15 2   
    30    13    16 2   
    31    14    40 1   
    32    14    41 1   
    33    17    18 1   
    34    17    42 1   
    35    18    19 1   
    36    18    43 1   
    37    18    44 1   
    38    20    19 ar  
    39    19    24 ar  
    40    20    21 ar  
    41    20    45 1   
    42    21    25 1   
    43    21    22 ar  
    44    22    23 ar  
    45    22    46 1   
    46    24    23 ar  
    47    23    47 1   
    48    24    48 1   
    49    26    25 1   
    50    27    25 1   
    51    25    49 1   
    52    26    27 1   
    53    26    50 1   
    54    26    51 1   
    55    27    52 1   
    56    27    53 1   
    57    28    54 1   
    58    29    55 1   
@<TRIPOS>SUBSTRUCTURE
     1 3P5         1 TEMP              0 ****  ****    0 ROOT
