@<TRIPOS>MOLECULE
3P6
   63    68     1     0     0
SMALL
bcc


@<TRIPOS>ATOM
      1 C1           0.0000     0.0000     0.0000 c3         1 3P6       0.048900
      2 C2           1.5300     0.0000     0.0000 cx         1 3P6      -0.144000
      3 C3           2.1910     0.0000     1.3850 c3         1 3P6       0.128900
      4 C4           2.8510    -1.3410     1.5860 cc         1 3P6      -0.376600
      5 N5           2.9620    -2.1020     2.6810 na         1 3P6       0.616400
      6 N6           3.6110    -3.1820     2.4040 nc         1 3P6      -0.678800
      7 C7           3.9590    -3.1910     1.1270 cd         1 3P6       0.275800
      8 C8           4.7120    -4.2500     0.4240 c          1 3P6       0.506600
      9 O9           4.9660    -4.1330    -0.7590 o          1 3P6      -0.667100
     10 N10          5.1170    -5.3460     1.0960 ns         1 3P6       0.051900
     11 C11          5.8350    -6.3550     0.4270 cc         1 3P6      -0.320700
     12 C12          6.2020    -6.3490    -0.9270 cc         1 3P6       0.408200
     13 N13          6.8560    -7.4530    -1.1810 nd         1 3P6      -0.664800
     14 N14          6.9320    -8.2030    -0.0000 na         1 3P6       0.449400
     15 C15          6.3020    -7.5050     0.9780 cd         1 3P6      -0.220300
     16 C16          7.5810    -9.5070     0.1520 c3         1 3P6       0.082300
     17 C17          9.0290    -9.3060     0.6040 c3         1 3P6      -0.055900
     18 C18          9.8120    -8.5790    -0.4910 c3         1 3P6      -0.011400
     19 C19         11.2780    -8.4510    -0.0870 c3         1 3P6      -0.041400
     20 C20         11.4330    -7.4630     1.0650 c3         1 3P6      -0.003400
     21 C21         10.8450    -8.0560     2.3460 c3         1 3P6       0.003400
     22 S22          9.0590    -8.3030     2.1180 s6         1 3P6       0.781000
     23 O23          8.4580    -7.0460     1.8420 o          1 3P6      -0.579800
     24 O24          8.5670    -9.0890     3.1950 o          1 3P6      -0.579800
     25 C25          6.8410   -10.3200     1.1820 ca         1 3P6      -0.154300
     26 C26          5.4670   -10.2100     1.2930 ca         1 3P6      -0.071000
     27 C27          4.7890   -10.9540     2.2400 ca         1 3P6      -0.093000
     28 C28          5.4830   -11.8080     3.0750 ca         1 3P6      -0.086000
     29 C29          6.8560   -11.9190     2.9650 ca         1 3P6      -0.093000
     30 C30          7.5340   -11.1790     2.0150 ca         1 3P6      -0.071000
     31 C31          3.4740    -2.0020     0.5710 cd         1 3P6      -0.197600
     32 C32          3.5570    -1.4560    -0.8280 c3         1 3P6       0.099900
     33 C33          2.2360    -0.7380    -1.1400 cx         1 3P6      -0.087700
     34 C34          2.2350     0.7830    -1.1100 cx         1 3P6       0.297600
     35 F35          3.4340     1.4240    -0.7820 f          1 3P6      -0.185300
     36 F36          1.4320     1.4470    -2.0440 f          1 3P6      -0.185300
     37 H1          -0.3610     0.9290     0.4240 hc         1 3P6       0.012033
     38 H2          -0.3610    -0.8310     0.5930 hc         1 3P6       0.012033
     39 H3          -0.3610    -0.0980    -1.0170 hc         1 3P6       0.012033
     40 H4           2.9590     0.7640     1.3980 hc         1 3P6       0.032200
     41 H5           1.4170     0.1160     2.1340 hc         1 3P6       0.032200
     42 H6           2.5950    -1.8680     3.5820 hn         1 3P6       0.129700
     43 H7           4.8690    -5.4630     2.0580 hn         1 3P6       0.171500
     44 H8           5.9810    -5.5650    -1.6410 h4         1 3P6       0.053100
     45 H9           6.1860    -7.8120     2.0110 h4         1 3P6       0.163000
     46 H10          7.5680   -10.0300    -0.7970 h1         1 3P6       0.062700
     47 H11          9.4900   -10.2670     0.7990 h1         1 3P6       0.089700
     48 H12          9.7430    -9.1430    -1.4140 hc         1 3P6       0.046200
     49 H13          9.3920    -7.5910    -0.6360 hc         1 3P6       0.046200
     50 H14         11.8510    -8.0990    -0.9360 hc         1 3P6       0.022200
     51 H15         11.6470    -9.4200     0.2230 hc         1 3P6       0.022200
     52 H16         12.4850    -7.2540     1.2180 hc         1 3P6       0.032200
     53 H17         10.9110    -6.5450     0.8230 hc         1 3P6       0.032200
     54 H18         11.3180    -9.0080     2.5540 h1         1 3P6       0.069200
     55 H19         11.0120    -7.3740     3.1710 h1         1 3P6       0.069200
     56 H20          4.9230    -9.5400     0.6390 ha         1 3P6       0.111500
     57 H21          3.7120   -10.8680     2.3270 ha         1 3P6       0.104000
     58 H22          4.9510   -12.3900     3.8180 ha         1 3P6       0.101000
     59 H23          7.4000   -12.5910     3.6180 ha         1 3P6       0.104000
     60 H24          8.6110   -11.2660     1.9280 ha         1 3P6       0.111500
     61 H25          4.3790    -0.7540    -0.8970 hc         1 3P6       0.049200
     62 H26          3.7040    -2.2700    -1.5280 hc         1 3P6       0.049200
     63 H27          1.5740    -1.1770    -1.8770 hc         1 3P6       0.077700
@<TRIPOS>BOND
     1     1     2 1   
     2     1    37 1   
     3     1    38 1   
     4     1    39 1   
     5     2     3 1   
     6     2    33 1   
     7     2    34 1   
     8     3     4 1   
     9     3    40 1   
    10     3    41 1   
    11     4     5 1   
    12     4    31 2   
    13     5     6 1   
    14     5    42 1   
    15     6     7 2   
    16     7     8 1   
    17     7    31 1   
    18     8     9 2   
    19     8    10 1   
    20    10    11 1   
    21    10    43 1   
    22    11    12 1   
    23    11    15 2   
    24    12    13 2   
    25    12    44 1   
    26    13    14 1   
    27    14    15 1   
    28    14    16 1   
    29    15    45 1   
    30    16    17 1   
    31    16    25 1   
    32    16    46 1   
    33    17    18 1   
    34    17    22 1   
    35    17    47 1   
    36    18    19 1   
    37    18    48 1   
    38    18    49 1   
    39    19    20 1   
    40    19    50 1   
    41    19    51 1   
    42    20    21 1   
    43    20    52 1   
    44    20    53 1   
    45    21    22 1   
    46    21    54 1   
    47    21    55 1   
    48    22    23 2   
    49    22    24 2   
    50    25    26 ar  
    51    25    30 ar  
    52    26    27 ar  
    53    26    56 1   
    54    27    28 ar  
    55    27    57 1   
    56    28    29 ar  
    57    28    58 1   
    58    29    30 ar  
    59    29    59 1   
    60    30    60 1   
    61    31    32 1   
    62    32    33 1   
    63    32    61 1   
    64    32    62 1   
    65    33    34 1   
    66    33    63 1   
    67    34    35 1   
    68    34    36 1   
@<TRIPOS>SUBSTRUCTURE
     1 3P6         1 TEMP              0 ****  ****    0 ROOT
