@<TRIPOS>MOLECULE
molecule
   63    68     1     0     0
SMALL
bcc


@<TRIPOS>ATOM
      1 C1           0.0000     0.0000     0.0000 c3         1 3P6      -0.057100
      2 C2           1.5300     0.0000     0.0000 cx         1 3P6      -0.135000
      3 C3           2.1910     0.0000     1.3850 c3         1 3P6       0.032900
      4 C4           2.8510    -1.3410     1.5860 cc         1 3P6      -0.154600
      5 N5           2.9620    -2.1020     2.6810 na         1 3P6       0.058400
      6 N6           3.6110    -3.1820     2.4040 nc         1 3P6      -0.522800
      7 C7           3.9590    -3.1910     1.1270 cd         1 3P6       0.279800
      8 C8           4.7120    -4.2500     0.4240 c          1 3P6       0.613600
      9 O9           4.9660    -4.1330    -0.7590 o          1 3P6      -0.613100
     10 N10          5.1170    -5.3460     1.0960 ns         1 3P6      -0.426100
     11 C11          5.8350    -6.3550     0.4270 cc         1 3P6      -0.153700
     12 C12          6.2020    -6.3490    -0.9270 cc         1 3P6       0.352200
     13 N13          6.8560    -7.4530    -1.1810 nd         1 3P6      -0.520800
     14 N14          6.9320    -8.2030    -0.0000 na         1 3P6       0.034400
     15 C15          6.3020    -7.5050     0.9780 cd         1 3P6      -0.111300
     16 C16          7.5810    -9.5070     0.1520 c3         1 3P6       0.173300
     17 C17          9.0290    -9.3060     0.6040 c3         1 3P6      -0.203900
     18 C18          9.8120    -8.5790    -0.4910 c3         1 3P6      -0.063400
     19 C19         11.2780    -8.4510    -0.0870 c3         1 3P6      -0.099400
     20 C20         11.4330    -7.4630     1.0650 c3         1 3P6      -0.065400
     21 C21         10.8450    -8.0560     2.3460 c3         1 3P6      -0.198600
     22 S22          9.0590    -8.3030     2.1180 s6         1 3P6       1.101000
     23 O23          8.4580    -7.0460     1.8420 o          1 3P6      -0.607800
     24 O24          8.5670    -9.0890     3.1950 o          1 3P6      -0.607800
     25 C25          6.8410   -10.3200     1.1820 ca         1 3P6      -0.152300
     26 C26          5.4670   -10.2100     1.2930 ca         1 3P6      -0.092000
     27 C27          4.7890   -10.9540     2.2400 ca         1 3P6      -0.124000
     28 C28          5.4830   -11.8080     3.0750 ca         1 3P6      -0.111000
     29 C29          6.8560   -11.9190     2.9650 ca         1 3P6      -0.124000
     30 C30          7.5340   -11.1790     2.0150 ca         1 3P6      -0.092000
     31 C31          3.4740    -2.0020     0.5710 cd         1 3P6      -0.207600
     32 C32          3.5570    -1.4560    -0.8280 c3         1 3P6       0.026900
     33 C33          2.2360    -0.7380    -1.1400 cx         1 3P6      -0.110700
     34 C34          2.2350     0.7830    -1.1100 cx         1 3P6       0.322600
     35 F35          3.4340     1.4240    -0.7820 f          1 3P6      -0.198300
     36 F36          1.4320     1.4470    -2.0440 f          1 3P6      -0.198300
     37 H1          -0.3610     0.9290     0.4240 hc         1 3P6       0.048367
     38 H2          -0.3610    -0.8310     0.5930 hc         1 3P6       0.048367
     39 H3          -0.3610    -0.0980    -1.0170 hc         1 3P6       0.048367
     40 H4           2.9590     0.7640     1.3980 hc         1 3P6       0.070700
     41 H5           1.4170     0.1160     2.1340 hc         1 3P6       0.070700
     42 H6           2.5950    -1.8680     3.5820 hn         1 3P6       0.333700
     43 H7           4.8690    -5.4630     2.0580 hn         1 3P6       0.336500
     44 H8           5.9810    -5.5650    -1.6410 h4         1 3P6       0.089100
     45 H9           6.1860    -7.8120     2.0110 h4         1 3P6       0.179000
     46 H10          7.5680   -10.0300    -0.7970 h1         1 3P6       0.102700
     47 H11          9.4900   -10.2670     0.7990 h1         1 3P6       0.107700
     48 H12          9.7430    -9.1430    -1.4140 hc         1 3P6       0.075700
     49 H13          9.3920    -7.5910    -0.6360 hc         1 3P6       0.075700
     50 H14         11.8510    -8.0990    -0.9360 hc         1 3P6       0.052200
     51 H15         11.6470    -9.4200     0.2230 hc         1 3P6       0.052200
     52 H16         12.4850    -7.2540     1.2180 hc         1 3P6       0.063700
     53 H17         10.9110    -6.5450     0.8230 hc         1 3P6       0.063700
     54 H18         11.3180    -9.0080     2.5540 h1         1 3P6       0.099200
     55 H19         11.0120    -7.3740     3.1710 h1         1 3P6       0.099200
     56 H20          4.9230    -9.5400     0.6390 ha         1 3P6       0.136000
     57 H21          3.7120   -10.8680     2.3270 ha         1 3P6       0.134000
     58 H22          4.9510   -12.3900     3.8180 ha         1 3P6       0.131000
     59 H23          7.4000   -12.5910     3.6180 ha         1 3P6       0.134000
     60 H24          8.6110   -11.2660     1.9280 ha         1 3P6       0.136000
     61 H25          4.3790    -0.7540    -0.8970 hc         1 3P6       0.082700
     62 H26          3.7040    -2.2700    -1.5280 hc         1 3P6       0.082700
     63 H27          1.5740    -1.1770    -1.8770 hc         1 3P6       0.104700
@<TRIPOS>BOND
     1    35    34 1
     2    36    34 1
     3    29    28 ar
     4    29    30 ar
     5    34    33 1
     6    34     2 1
     7    28    27 ar
     8    30    25 ar
     9    33    32 1
    10    33     2 1
    11    32    31 1
    12     2     3 1
    13     2     1 1
    14     9     8 2
    15    27    26 ar
    16     3     4 1
    17    31     4 2
    18    31     7 1
    19     4     5 1
    20     8     7 1
    21     8    10 1
    22    12    13 2
    23    12    11 1
    24     7     6 2
    25    13    14 1
    26    25    26 ar
    27    25    16 1
    28     5     6 1
    29    11    10 1
    30    11    15 2
    31    14    15 1
    32    14    16 1
    33    16    17 1
    34    17    18 1
    35    17    22 1
    36    19    18 1
    37    19    20 1
    38    24    22 2
    39    22    21 1
    40    22    23 2
    41    20    21 1
    42     1    37 1
    43     1    38 1
    44     1    39 1
    45     3    40 1
    46     3    41 1
    47     5    42 1
    48    10    43 1
    49    12    44 1
    50    15    45 1
    51    16    46 1
    52    17    47 1
    53    18    48 1
    54    18    49 1
    55    19    50 1
    56    19    51 1
    57    20    52 1
    58    20    53 1
    59    21    54 1
    60    21    55 1
    61    26    56 1
    62    27    57 1
    63    28    58 1
    64    29    59 1
    65    30    60 1
    66    32    61 1
    67    32    62 1
    68    33    63 1
@<TRIPOS>SUBSTRUCTURE
     1 3P6         1 TEMP              0 ****  ****    0 ROOT
