@<TRIPOS>MOLECULE
molecule
   45    46     1     0     0
SMALL
bcc


@<TRIPOS>ATOM
      1 C1           1.5070     0.0000     0.0000 c          1 3P7       0.547900
      2 O1           2.1110     0.9040    -0.5280 o          1 3P7      -0.493100
      3 C2           0.0000     0.0000     0.0000 c3         1 3P7       0.254200
      4 N2          -0.4880     0.0000     1.3810 ns         1 3P7      -0.561900
      5 C3          -0.5090     1.2490    -0.7220 c3         1 3P7       0.320300
      6 O4          -0.1150     1.1890    -2.0900 os         1 3P7      -0.453600
      7 C5          -0.6500     2.2550    -2.8900 c3         1 3P7       0.178600
      8 C6          -2.1610     2.1250    -2.8310 ce         1 3P7      -0.264800
      9 C7          -2.7430     1.7260    -1.5290 ce         1 3P7       0.444600
     10 C8          -4.2130     1.7890    -1.3120 c          1 3P7       0.803300
     11 N8          -1.9580     1.3210    -0.5780 n2         1 3P7      -0.552900
     12 C9          -2.9240     2.3580    -3.8950 c2         1 3P7      -0.206000
     13 C21         -0.1630     1.0100     2.2110 c          1 3P7       0.704100
     14 O21          0.5350     1.9200     1.8140 o          1 3P7      -0.662100
     15 C22         -0.6650     1.0100     3.6320 c3         1 3P7      -0.218400
     16 C23         -0.1620     2.2410     4.3420 ca         1 3P7       0.010700
     17 C24          0.6320     2.1130     5.4660 ca         1 3P7      -0.090000
     18 C25          1.0950     3.2390     6.1200 ca         1 3P7      -0.165000
     19 C26          0.7590     4.4990     5.6460 ca         1 3P7       0.056100
     20 O26          1.2130     5.6090     6.2870 oh         1 3P7      -0.543100
     21 C27         -0.0380     4.6260     4.5180 ca         1 3P7      -0.165000
     22 C28         -0.4930     3.4960     3.8660 ca         1 3P7      -0.090000
     23 C29         -2.1720     1.0100     3.6320 c          1 3P7       0.866600
     24 O30         -2.7760     1.0110     2.5860 o          1 3P7      -0.792800
     25 O31         -2.8430     1.0100     4.7940 o          1 3P7      -0.792800
     26 O61         -0.4770    -1.1660    -0.6740 os         1 3P7      -0.372600
     27 C62         -0.0650    -2.3950    -0.0700 c3         1 3P7       0.114700
     28 O81         -4.9320     2.2720    -2.1630 o          1 3P7      -0.812300
     29 O82         -4.7470     1.3090    -0.1740 o          1 3P7      -0.812300
     30 H1          -1.0620    -0.7520     1.7090 hn         1 3P7       0.341500
     31 H2          -0.0680     2.1290    -0.2680 h2         1 3P7       0.099700
     32 H3          -0.3100     2.1540    -3.9140 h1         1 3P7       0.032700
     33 H4          -0.3440     3.2110    -2.4840 h1         1 3P7       0.032700
     34 H6          -4.0000     2.2570    -3.8220 ha         1 3P7       0.121500
     35 H7          -2.4690     2.6490    -4.8340 ha         1 3P7       0.121500
     36 H9          -0.3040     0.1260     4.1420 hc         1 3P7       0.050700
     37 H10          0.8930     1.1280     5.8350 ha         1 3P7       0.143000
     38 H11          1.7170     3.1380     7.0010 ha         1 3P7       0.113500
     39 H12          0.6090     5.8450     6.9710 ho         1 3P7       0.396000
     40 H13         -0.2990     5.6090     4.1460 ha         1 3P7       0.113500
     41 H14         -1.1150     3.5930     2.9850 ha         1 3P7       0.143000
     42 H16          0.5900    -2.9300    -0.7480 h1         1 3P7       0.023033
     43 H17         -0.9360    -3.0020     0.1440 h1         1 3P7       0.023033
     44 H18          0.4640    -2.1850     0.8520 h1         1 3P7       0.023033
     45 H20          2.0310    -0.7050     0.6330 h4         1 3P7      -0.031800
@<TRIPOS>BOND
     1    28    10 1
     2    29    10 1
     3    10     9 1
     4    12     8 2
     5     9     8 1
     6     9    11 2
     7     8     7 1
     8    11     5 1
     9     7     6 1
    10     5     6 1
    11     5     3 1
    12     2     1 2
    13     1     3 1
    14     3    26 1
    15     3     4 1
    16    26    27 1
    17     4    13 1
    18    20    19 1
    19    18    19 ar
    20    18    17 ar
    21    19    21 ar
    22    13    14 2
    23    13    15 1
    24    17    16 ar
    25    21    22 ar
    26    22    16 ar
    27    16    15 1
    28    15    23 1
    29    24    23 1
    30    23    25 1
    31     4    30 1
    32     5    31 1
    33     7    32 1
    34     7    33 1
    35    12    34 1
    36    12    35 1
    37    15    36 1
    38    17    37 1
    39    18    38 1
    40    20    39 1
    41    21    40 1
    42    22    41 1
    43    27    42 1
    44    27    43 1
    45    27    44 1
    46     1    45 1
@<TRIPOS>SUBSTRUCTURE
     1 3P7         1 TEMP              0 ****  ****    0 ROOT
