@<TRIPOS>MOLECULE
3P7
   45    46     1     0     0
SMALL
bcc


@<TRIPOS>ATOM
      1 C1           1.5070     0.0000     0.0000 c          1 3P7       0.621900
      2 O1           2.1110     0.9040    -0.5280 o          1 3P7      -0.525100
      3 C2           0.0000     0.0000     0.0000 c3         1 3P7       0.130200
      4 N2          -0.4880     0.0000     1.3810 ns         1 3P7      -0.171900
      5 C3          -0.5090     1.2490    -0.7220 c3         1 3P7       0.312300
      6 O4          -0.1150     1.1890    -2.0900 os         1 3P7      -0.434600
      7 C5          -0.6500     2.2550    -2.8900 c3         1 3P7       0.262600
      8 C6          -2.1610     2.1250    -2.8310 ce         1 3P7      -0.262800
      9 C7          -2.7430     1.7260    -1.5290 ce         1 3P7       0.408600
     10 C8          -4.2130     1.7890    -1.3120 c          1 3P7       0.886300
     11 N8          -1.9580     1.3210    -0.5780 n2         1 3P7      -0.484900
     12 C9          -2.9240     2.3580    -3.8950 c2         1 3P7      -0.180000
     13 C21         -0.1630     1.0100     2.2110 c          1 3P7       0.629100
     14 O21          0.5350     1.9200     1.8140 o          1 3P7      -0.711100
     15 C22         -0.6650     1.0100     3.6320 c3         1 3P7      -0.191400
     16 C23         -0.1620     2.2410     4.3420 ca         1 3P7       0.015700
     17 C24          0.6320     2.1130     5.4660 ca         1 3P7      -0.061500
     18 C25          1.0950     3.2390     6.1200 ca         1 3P7      -0.155000
     19 C26          0.7590     4.4990     5.6460 ca         1 3P7       0.068100
     20 O26          1.2130     5.6090     6.2870 oh         1 3P7      -0.515100
     21 C27         -0.0380     4.6260     4.5180 ca         1 3P7      -0.155000
     22 C28         -0.4930     3.4960     3.8660 ca         1 3P7      -0.061500
     23 C29         -2.1720     1.0100     3.6320 c          1 3P7       0.945600
     24 O30         -2.7760     1.0110     2.5860 o          1 3P7      -0.842800
     25 O31         -2.8430     1.0100     4.7940 o          1 3P7      -0.842800
     26 O61         -0.4770    -1.1660    -0.6740 os         1 3P7      -0.358600
     27 C62         -0.0650    -2.3950    -0.0700 c3         1 3P7       0.225700
     28 O81         -4.9320     2.2720    -2.1630 o          1 3P7      -0.863300
     29 O82         -4.7470     1.3090    -0.1740 o          1 3P7      -0.863300
     30 H1          -1.0590    -0.7540     1.7100 hn         1 3P7       0.204500
     31 H2          -0.0680     2.1290    -0.2680 h2         1 3P7       0.070700
     32 H3          -0.3100     2.1540    -3.9140 h1         1 3P7      -0.005300
     33 H4          -0.3440     3.2110    -2.4840 h1         1 3P7      -0.005300
     34 H6          -4.0000     2.2570    -3.8220 ha         1 3P7       0.104000
     35 H7          -2.4690     2.6490    -4.8340 ha         1 3P7       0.104000
     36 H9          -0.3040     0.1260     4.1420 hc         1 3P7       0.024700
     37 H10          0.8930     1.1280     5.8350 ha         1 3P7       0.115500
     38 H11          1.7170     3.1380     7.0010 ha         1 3P7       0.091500
     39 H12          2.0640     5.8390     5.9520 ho         1 3P7       0.377000
     40 H13         -0.2990     5.6090     4.1460 ha         1 3P7       0.091500
     41 H14         -1.1150     3.5930     2.9850 ha         1 3P7       0.115500
     42 H16         -0.9350    -3.0060     0.1350 h1         1 3P7      -0.016300
     43 H17          0.4560    -2.1860     0.8570 h1         1 3P7      -0.016300
     44 H18          0.5970    -2.9250    -0.7440 h1         1 3P7      -0.016300
     45 H20          2.0480    -0.7980     0.4930 h4         1 3P7      -0.065800
@<TRIPOS>BOND
     1     1     2 2   
     2     1     3 1   
     3     1    45 1   
     4     3     4 1   
     5     3     5 1   
     6     3    26 1   
     7     4    13 1   
     8     4    30 1   
     9     5     6 1   
    10     5    11 1   
    11     5    31 1   
    12     6     7 1   
    13     7     8 1   
    14     7    32 1   
    15     7    33 1   
    16     8     9 1   
    17     8    12 2   
    18     9    10 1   
    19     9    11 2   
    20    10    28 1   
    21    10    29 1   
    22    12    34 1   
    23    12    35 1   
    24    13    14 2   
    25    13    15 1   
    26    15    16 1   
    27    15    23 1   
    28    15    36 1   
    29    16    17 ar  
    30    16    22 ar  
    31    17    18 ar  
    32    17    37 1   
    33    18    19 ar  
    34    18    38 1   
    35    19    20 1   
    36    19    21 ar  
    37    20    39 1   
    38    21    22 ar  
    39    21    40 1   
    40    22    41 1   
    41    23    24 1   
    42    23    25 1   
    43    26    27 1   
    44    27    42 1   
    45    27    43 1   
    46    27    44 1   
@<TRIPOS>SUBSTRUCTURE
     1 3P7         1 TEMP              0 ****  ****    0 ROOT
