@<TRIPOS>MOLECULE
molecule
    8     7     1     0     0
SMALL
bcc


@<TRIPOS>ATOM
      1 C1           0.0000     0.0000     0.0000 c3         1 3P8       0.084100
      2 N1           1.4690     0.0000     0.0000 nz         1 3P8      -0.809600
      3 H1          -0.3610     0.0000     1.0210 hx         1 3P8       0.113700
      4 H2          -0.3610     0.8850    -0.5110 hx         1 3P8       0.113700
      5 H3          -0.3610    -0.8850    -0.5110 hx         1 3P8       0.113700
      6 H4           1.8030     0.0000    -0.9440 hn         1 3P8       0.461800
      7 H5           1.8030     0.8170     0.4720 hn         1 3P8       0.461800
      8 H6           1.8030    -0.8170     0.4720 hn         1 3P8       0.461800
@<TRIPOS>BOND
     1     1     2 1
     2     1     3 1
     3     1     4 1
     4     1     5 1
     5     2     6 1
     6     2     7 1
     7     2     8 1
@<TRIPOS>SUBSTRUCTURE
     1 3P8         1 TEMP              0 ****  ****    0 ROOT
