@<TRIPOS>MOLECULE
molecule
   33    32     1     0     0
SMALL
bcc


@<TRIPOS>ATOM
      1 O3           0.0000     0.0000     0.0000 oh         1 3P9      -0.600800
      2 C7           1.4300     0.0000     0.0000 c3         1 3P9       0.148100
      3 C8           1.9390     0.0000     1.4420 c3         1 3P9      -0.116100
      4 C6           1.9390     1.2490    -0.7210 c3         1 3P9       0.133400
      5 O2           1.5610     1.1920    -2.0980 os         1 3P9      -0.410600
      6 C4           1.9900     2.3190    -2.8660 c3         1 3P9       0.148100
      7 C5           3.3770     2.0380    -3.4510 c3         1 3P9      -0.113100
      8 C3           0.9990     2.5680    -4.0040 c3         1 3P9       0.139400
      9 O1           1.0220     1.4620    -4.9070 os         1 3P9      -0.399600
     10 C1           0.1270     1.5960    -6.0130 c3         1 3P9       0.146100
     11 C2           0.8460     2.2910    -7.1710 c3         1 3P9      -0.113100
     12 C           -0.3420     0.2100    -6.4610 c3         1 3P9       0.145400
     13 O            0.7730    -0.5290    -6.9650 oh         1 3P9      -0.597800
     14 H1          -0.3140    -0.8610    -0.2230 ho         1 3P9       0.403000
     15 H2           1.7910    -0.8840    -0.5110 h1         1 3P9       0.043700
     16 H3           1.0970    -0.0000     2.1230 hc         1 3P9       0.044367
     17 H4           2.5410    -0.8840     1.6120 hc         1 3P9       0.044367
     18 H5           2.5410     0.8850     1.6130 hc         1 3P9       0.044367
     19 H6           3.0190     1.2940    -0.6450 h1         1 3P9       0.030700
     20 H7           1.5080     2.1310    -0.2640 h1         1 3P9       0.030700
     21 H8           2.0370     3.1940    -2.2280 h1         1 3P9       0.037700
     22 H9           3.5670     2.7200    -4.2710 hc         1 3P9       0.044700
     23 H10          4.1280     2.1780    -2.6830 hc         1 3P9       0.044700
     24 H11          3.4160     1.0180    -3.8130 hc         1 3P9       0.044700
     25 H12          1.2760     3.4730    -4.5320 h1         1 3P9       0.029700
     26 H13          0.0010     2.6800    -3.5950 h1         1 3P9       0.029700
     27 H14         -0.7300     2.1880    -5.7140 h1         1 3P9       0.036700
     28 H15          0.2990     2.1190    -8.0910 hc         1 3P9       0.043367
     29 H16          1.8480     1.8900    -7.2670 hc         1 3P9       0.043367
     30 H17          0.9000     3.3550    -6.9770 hc         1 3P9       0.043367
     31 H18         -1.0880     0.3150    -7.2400 h1         1 3P9       0.027700
     32 H19         -0.7720    -0.3160    -5.6170 h1         1 3P9       0.027700
     33 H20          0.4820    -1.3760    -7.2590 ho         1 3P9       0.397000
@<TRIPOS>BOND
     1    13    12 1   
     2    11    10 1   
     3    12    10 1   
     4    10     9 1   
     5     9     8 1   
     6     3     2 1   
     7     8     6 1   
     8     5     4 1   
     9     5     6 1   
    10     4     2 1   
    11     6     7 1   
    12     2     1 1   
    13     1    14 1   
    14     2    15 1   
    15     3    16 1   
    16     3    17 1   
    17     3    18 1   
    18     4    19 1   
    19     4    20 1   
    20     6    21 1   
    21     7    22 1   
    22     7    23 1   
    23     7    24 1   
    24     8    25 1   
    25     8    26 1   
    26    10    27 1   
    27    11    28 1   
    28    11    29 1   
    29    11    30 1   
    30    12    31 1   
    31    12    32 1   
    32    13    33 1   
@<TRIPOS>SUBSTRUCTURE
     1 3P9         1 TEMP              0 ****  ****    0 ROOT
