@<TRIPOS>MOLECULE
3P9
   33    32     1     0     0
SMALL
bcc


@<TRIPOS>ATOM
      1 O3         -0.4430    1.6010   -0.3080 oh        1 3P9     -0.600800
      2 C7          0.5090    0.5560   -0.4500 c3        1 3P9      0.143100
      3 C8          0.7850    0.0100    0.9370 c3        1 3P9     -0.094100
      4 C6          1.8000    1.0840   -1.0850 c3        1 3P9      0.090400
      5 O2          1.4440    1.5140   -2.3960 os        1 3P9     -0.445600
      6 C4          2.4830    2.2400   -3.0620 c3        1 3P9      0.111100
      7 C5          3.6330    1.3360   -3.4510 c3        1 3P9     -0.116100
      8 C3          1.8240    2.8950   -4.2840 c3        1 3P9      0.137400
      9 O1          1.7550    2.0350   -5.4080 os        1 3P9     -0.432600
     10 C1          0.6720    1.0940   -5.3770 c3        1 3P9      0.090100
     11 C2         -0.5950    1.7340   -5.9070 c3        1 3P9     -0.116100
     12 C           1.1260   -0.0700   -6.2670 c3        1 3P9      0.135400
     13 O           1.3820    0.3310   -7.5960 oh        1 3P9     -0.599800
     14 H1         -0.5470    1.9970   -1.1830 ho        1 3P9      0.412000
     15 H2          0.0760   -0.2480   -1.1110 h1        1 3P9      0.043700
     16 H3         -0.1700   -0.3270    1.4050 hc        1 3P9      0.047700
     17 H4          1.4880   -0.8530    0.8690 hc        1 3P9      0.047700
     18 H5          1.2340    0.8010    1.5850 hc        1 3P9      0.047700
     19 H6          2.2070    1.9440   -0.4920 h1        1 3P9      0.040700
     20 H7          2.5670    0.2700   -1.1480 h1        1 3P9      0.040700
     21 H8          2.8490    3.0590   -2.3790 h1        1 3P9      0.041700
     22 H9          4.3580    1.9050   -4.0810 hc        1 3P9      0.047367
     23 H10         4.1590    0.9530   -2.5450 hc        1 3P9      0.047367
     24 H11         3.2520    0.4690   -4.0450 hc        1 3P9      0.047367
     25 H12         0.8070    3.2750   -4.0060 h1        1 3P9      0.059200
     26 H13         2.4760    3.7410   -4.6350 h1        1 3P9      0.059200
     27 H14         0.5200    0.7220   -4.3260 h1        1 3P9      0.069700
     28 H15        -0.4550    2.0260   -6.9760 hc        1 3P9      0.045700
     29 H16        -1.4390    1.0070   -5.8400 hc        1 3P9      0.045700
     30 H17        -0.8530    2.6440   -5.3160 hc        1 3P9      0.045700
     31 H18         2.0470   -0.5370   -5.8250 h1        1 3P9      0.048200
     32 H19         0.3050   -0.8310   -6.3430 h1        1 3P9      0.048200
     33 H20         1.9920    1.0790   -7.5540 ho        1 3P9      0.414000
@<TRIPOS>BOND
     1    1    2 1   
     2    1   14 1   
     3    2    3 1   
     4    2    4 1   
     5    2   15 1   
     6    3   16 1   
     7    3   17 1   
     8    3   18 1   
     9    4    5 1   
    10    4   19 1   
    11    4   20 1   
    12    5    6 1   
    13    6    7 1   
    14    6    8 1   
    15    6   21 1   
    16    7   22 1   
    17    7   23 1   
    18    7   24 1   
    19    8    9 1   
    20    8   25 1   
    21    8   26 1   
    22    9   10 1   
    23   10   11 1   
    24   10   12 1   
    25   10   27 1   
    26   11   28 1   
    27   11   29 1   
    28   11   30 1   
    29   12   13 1   
    30   12   31 1   
    31   12   32 1   
    32   13   33 1   
@<TRIPOS>SUBSTRUCTURE
     1 3P9         1 TEMP              0 ****  ****    0 ROOT
