@<TRIPOS>MOLECULE
molecule
   23    23     1     0     0
SMALL
bcc


@<TRIPOS>ATOM
      1 C1A          0.0000     0.0000     0.0000 c3         1 3PA      -0.087400
      2 C2A          1.5420     0.0000     0.0000 c3         1 3PA      -0.077400
      3 C3A          1.9820     0.0000     1.4750 c3         1 3PA      -0.077700
      4 C4A          0.6930     0.0000     2.3180 c3         1 3PA      -0.077400
      5 C5A         -0.3790     0.6010     1.3760 c3         1 3PA      -0.087400
      6 C6A          2.8060    -1.2530     1.7750 c3         1 3PA      -0.057400
      7 C7A          3.2370    -1.2400     3.2420 c3         1 3PA      -0.184400
      8 C8A          4.0490    -2.4730     3.5400 c          1 3PA       0.890600
      9 O9A          4.2610    -3.2810     2.6670 o          1 3PA      -0.858800
     10 O10          4.5360    -2.6770     4.7740 o          1 3PA      -0.858800
     11 H11         -0.3780     0.6230    -0.8010 hc         1 3PA       0.030700
     12 H21         -0.3780    -1.0120    -0.0870 hc         1 3PA       0.030700
     13 H12          1.9120     0.8890    -0.4960 hc         1 3PA       0.041450
     14 H22          1.9120    -0.8890    -0.4960 hc         1 3PA       0.041450
     15 HC3          2.5620     0.8910     1.6860 hc         1 3PA       0.039700
     16 H14          0.4250    -1.0110     2.5980 hc         1 3PA       0.041450
     17 H24          0.8160     0.6230     3.1960 hc         1 3PA       0.041450
     18 H15         -1.3710     0.2820     1.6720 hc         1 3PA       0.030700
     19 H25         -0.3060     1.6820     1.3540 hc         1 3PA       0.030700
     20 H16          2.2060    -2.1340     1.5830 hc         1 3PA       0.046200
     21 H26          3.6840    -1.2690     1.1410 hc         1 3PA       0.046200
     22 H17          2.3590    -1.2240     3.8770 hc         1 3PA       0.027200
     23 H27          3.8370    -0.3580     3.4340 hc         1 3PA       0.027200
@<TRIPOS>BOND
     1     1     2 1
     2     1     5 1
     3     1    11 1
     4     1    12 1
     5     2     3 1
     6     2    13 1
     7     2    14 1
     8     3     4 1
     9     3     6 1
    10     3    15 1
    11     4     5 1
    12     4    16 1
    13     4    17 1
    14     5    18 1
    15     5    19 1
    16     6     7 1
    17     6    20 1
    18     6    21 1
    19     7     8 1
    20     7    22 1
    21     7    23 1
    22     8     9 1
    23     8    10 1
@<TRIPOS>SUBSTRUCTURE
     1 3PA         1 TEMP              0 ****  ****    0 ROOT
