@<TRIPOS>MOLECULE
3PA
   23    23     1     0     0
SMALL
bcc


@<TRIPOS>ATOM
      1 C1A        -0.0290    0.3100   -0.0120 c3        1 3PA     -0.076900
      2 C2A         1.3520   -0.3320    0.0110 c3        1 3PA     -0.076900
      3 C3A         1.9000   -0.1760    1.4300 c3        1 3PA     -0.063700
      4 C4A         0.6830    0.0550    2.3260 c3        1 3PA     -0.076900
      5 C5A        -0.4500    0.5440    1.4330 c3        1 3PA     -0.076900
      6 C6A         2.7290   -1.3720    1.8550 c3        1 3PA     -0.059400
      7 C7A         3.4060   -1.1630    3.1870 c3        1 3PA     -0.194400
      8 C8A         4.3490   -2.3320    3.5230 c         1 3PA      0.907600
      9 O9A         5.1460   -2.7400    2.6290 o         1 3PA     -0.853300
     10 O10         4.2930   -2.8160    4.6900 o         1 3PA     -0.853300
     11 H11        -0.0000    1.2800   -0.5700 hc        1 3PA      0.024450
     12 H21        -0.7630   -0.3510   -0.5370 hc        1 3PA      0.024450
     13 H12         1.2790   -1.4170   -0.2550 hc        1 3PA      0.040200
     14 H22         2.0330    0.1490   -0.7320 hc        1 3PA      0.040200
     15 HC3         2.5520    0.7400    1.4660 hc        1 3PA      0.037700
     16 H14         0.3940   -0.8990    2.8350 hc        1 3PA      0.040200
     17 H24         0.9180    0.7990    3.1260 hc        1 3PA      0.040200
     18 H15        -1.3970   -0.0030    1.6630 hc        1 3PA      0.024450
     19 H25        -0.6460    1.6320    1.6090 hc        1 3PA      0.024450
     20 H16         2.0770   -2.2830    1.9080 hc        1 3PA      0.045200
     21 H26         3.5180   -1.5750    1.0820 hc        1 3PA      0.045200
     22 H17         2.6430   -1.0540    3.9980 hc        1 3PA      0.019200
     23 H27         4.0180   -0.2250    3.1630 hc        1 3PA      0.019200
@<TRIPOS>BOND
     1    1    2 1   
     2    1    5 1   
     3    1   11 1   
     4    1   12 1   
     5    2    3 1   
     6    2   13 1   
     7    2   14 1   
     8    3    4 1   
     9    3    6 1   
    10    3   15 1   
    11    4    5 1   
    12    4   16 1   
    13    4   17 1   
    14    5   18 1   
    15    5   19 1   
    16    6    7 1   
    17    6   20 1   
    18    6   21 1   
    19    7    8 1   
    20    7   22 1   
    21    7   23 1   
    22    8    9 1   
    23    8   10 1   
@<TRIPOS>SUBSTRUCTURE
     1 3PA         1 TEMP              0 ****  ****    0 ROOT
