@<TRIPOS>MOLECULE
3PB
   17    16     1     0     0
SMALL
bcc


@<TRIPOS>ATOM
      1 O2          1.3380    2.0150   -0.2740 o         1 3PB     -0.913300
      2 C1          1.9960    0.9370   -0.4320 c         1 3PB      0.901600
      3 O1          3.2500    0.9260   -0.1790 o         1 3PB     -0.913300
      4 C2          1.3120   -0.3700   -0.8180 c3        1 3PB     -0.180400
      5 C3          0.6360   -0.4480   -2.2020 c3        1 3PB      0.247100
      6 C4          1.5210    0.2580   -3.2340 c3        1 3PB     -0.110100
      7 O1P         0.4440   -1.7780   -2.5430 os        1 3PB     -0.588200
      8 P          -1.0730   -2.2280   -3.2130 p5        1 3PB      1.326900
      9 O4P        -2.0980   -1.7980   -2.1930 o         1 3PB     -0.951500
     10 O2P        -1.1300   -1.4720   -4.5210 o         1 3PB     -0.951500
     11 O3P        -0.9130   -3.7240   -3.3590 o         1 3PB     -0.951500
     12 H2          0.5280   -0.5830   -0.0470 hc        1 3PB      0.016700
     13 H2A         2.0740   -1.1900   -0.7650 hc        1 3PB      0.016700
     14 H3         -0.3620    0.0790   -2.1590 h1        1 3PB      0.024700
     15 H4          1.7140    1.3080   -2.9090 hc        1 3PB      0.008367
     16 H4A         1.0180    0.2600   -4.2300 hc        1 3PB      0.008367
     17 H4B         2.4960   -0.2760   -3.3280 hc        1 3PB      0.008367
@<TRIPOS>BOND
     1    1    2 1   
     2    2    3 1   
     3    2    4 1   
     4    4    5 1   
     5    4   12 1   
     6    4   13 1   
     7    5    6 1   
     8    5    7 1   
     9    5   14 1   
    10    6   15 1   
    11    6   16 1   
    12    6   17 1   
    13    7    8 1   
    14    8    9 1   
    15    8   10 1   
    16    8   11 1   
@<TRIPOS>SUBSTRUCTURE
     1 3PB         1 TEMP              0 ****  ****    0 ROOT
