@<TRIPOS>MOLECULE
molecule
   17    16     1     0     0
SMALL
bcc


@<TRIPOS>ATOM
      1 O2           0.0000     0.0000     0.0000 o          1 3PB      -0.841300
      2 C1           1.2080     0.0000     0.0000 c          1 3PB       0.863600
      3 O1           1.8800     0.0000     1.1620 o          1 3PB      -0.841300
      4 C2           1.9610    -0.0050    -1.3060 c3         1 3PB      -0.187400
      5 C3           0.9750    -0.1730    -2.4630 c3         1 3PB       0.246100
      6 C4           1.7180    -0.0340    -3.7930 c3         1 3PB      -0.115100
      7 O1P          0.3690    -1.4660    -2.3890 os         1 3PB      -0.570200
      8 P           -1.2170    -1.7010    -2.5340 p5         1 3PB       1.210900
      9 O4P         -1.9760    -1.0220    -1.2870 o          1 3PB      -0.929500
     10 O2P         -1.6930    -1.0900    -3.7950 o          1 3PB      -0.929500
     11 O3P         -1.5250    -3.2810    -2.5530 o          1 3PB      -0.929500
     12 H2           2.4940     0.9310    -1.4190 hc         1 3PB      -0.007800
     13 H2A          2.6680    -0.8260    -1.3120 hc         1 3PB      -0.007800
     14 H3           0.2080     0.5890    -2.3970 h1         1 3PB       0.046700
     15 H4           1.0060    -0.0560    -4.6090 hc         1 3PB      -0.001967
     16 H4A          2.4190    -0.8530    -3.9030 hc         1 3PB      -0.001967
     17 H4B          2.2570     0.9060    -3.8090 hc         1 3PB      -0.001967
@<TRIPOS>BOND
     1     2     1 1
     2     4     2 1
     3     2     3 1
     4     5     4 1
     5     4    12 1
     6     4    13 1
     7     7     5 1
     8     5     6 1
     9     5    14 1
    10     6    15 1
    11     6    16 1
    12     6    17 1
    13     8     7 1
    14    10     8 1
    15    11     8 1
    16     8     9 1
@<TRIPOS>SUBSTRUCTURE
     1 3PB         1 TEMP              0 ****  ****    0 ROOT
