@<TRIPOS>MOLECULE
3PC
   72    71     1     0     0
SMALL
bcc


@<TRIPOS>ATOM
      1 C15          0.0000     0.0000     0.0000 c3         1 3PC       0.005900
      2 C14          1.5300     0.0000     0.0000 c3         1 3PC      -0.027400
      3 C13          2.0390     0.0000     1.4430 c3         1 3PC      -0.031400
      4 C12          3.5690    -0.0010     1.4420 c3         1 3PC      -0.021400
      5 C11          4.0780    -0.0010     2.8860 c3         1 3PC      -0.070400
      6 C10          5.5860    -0.0020     2.8860 c          1 3PC       0.690100
      7 O7           6.1900    -0.0010     1.8390 o          1 3PC      -0.592000
      8 O6           6.2570    -0.0010     4.0490 os         1 3PC      -0.402900
      9 C9           7.7070    -0.0010     3.9730 c3         1 3PC       0.198400
     10 C8           8.2910    -0.0020     5.3860 c3         1 3PC       0.164100
     11 O5           7.9420    -1.2430     6.0550 os         1 3PC      -0.400900
     12 C16          6.7930    -1.2580     6.7490 c          1 3PC       0.688100
     13 O8           6.1030    -0.2680     6.7970 o          1 3PC      -0.585000
     14 C17          6.3650    -2.5110     7.4690 c3         1 3PC      -0.071400
     15 C18          5.0310    -2.2610     8.1760 c3         1 3PC      -0.021400
     16 C19          4.5960    -3.5330     8.9080 c3         1 3PC      -0.031400
     17 C20          3.2630    -3.2840     9.6150 c3         1 3PC      -0.026400
     18 C21          2.8280    -4.5560    10.3460 c3         1 3PC       0.005900
     19 C7           9.8150     0.1230     5.3090 c3         1 3PC       0.014600
     20 C6          10.3890     0.2490     6.7220 c3         1 3PC      -0.031600
     21 P1          12.2030     0.3980     6.6290 p5         1 3PC       0.616600
     22 O2          12.7990    -0.9080     6.0590 o          1 3PC      -0.625000
     23 O3          12.5760     1.5800     5.7050 o          1 3PC      -0.625000
     24 O1          12.7950     0.6620     8.1020 os         1 3PC      -0.523200
     25 C5          14.1780     0.9260     8.3500 c3         1 3PC       0.281400
     26 C4          14.3990     1.1280     9.8500 c3         1 3PC      -0.040200
     27 N1          14.1450    -0.1350    10.5560 n4         1 3PC       0.066200
     28 C1          14.9710    -1.1990     9.9700 c3         1 3PC       0.008100
     29 C2          14.4850     0.0210    11.9770 c3         1 3PC       0.008100
     30 C3          12.7260    -0.4910    10.4290 c3         1 3PC       0.008100
     31 H151        -0.3610    -0.9150     0.4530 hc         1 3PC      -0.000967
     32 H152        -0.3610     0.0650    -1.0190 hc         1 3PC      -0.000967
     33 H153        -0.3610     0.8500     0.5660 hc         1 3PC      -0.000967
     34 H141         1.8910     0.8850    -0.5100 hc         1 3PC       0.014200
     35 H142         1.8910    -0.8850    -0.5100 hc         1 3PC       0.014200
     36 H131         1.6780     0.8850     1.9530 hc         1 3PC       0.012700
     37 H132         1.6770    -0.8840     1.9530 hc         1 3PC       0.012700
     38 H121         3.9300    -0.8860     0.9320 hc         1 3PC       0.029200
     39 H122         3.9310     0.8830     0.9320 hc         1 3PC       0.029200
     40 H111         3.7180     0.8840     3.3960 hc         1 3PC       0.034700
     41 H112         3.7170    -0.8850     3.3970 hc         1 3PC       0.034700
     42 H91          8.0410    -0.8860     3.4440 h1         1 3PC       0.023700
     43 H92          8.0410     0.8830     3.4450 h1         1 3PC       0.023700
     44 H8           7.8880     0.8340     5.9440 h1         1 3PC       0.042700
     45 H171         7.1160    -2.7830     8.2000 hc         1 3PC       0.032200
     46 H172         6.2490    -3.3170     6.7540 hc         1 3PC       0.032200
     47 H181         5.1470    -1.4550     8.8910 hc         1 3PC       0.028700
     48 H182         4.2800    -1.9900     7.4450 hc         1 3PC       0.028700
     49 H191         4.4810    -4.3390     8.1930 hc         1 3PC       0.012200
     50 H192         5.3480    -3.8040     9.6390 hc         1 3PC       0.012200
     51 H201         2.5120    -3.0130     8.8830 hc         1 3PC       0.013700
     52 H202         3.3790    -2.4780    10.3300 hc         1 3PC       0.013700
     53 H211         3.4190    -4.6760    11.2460 hc         1 3PC      -0.000633
     54 H212         1.7800    -4.4800    10.6100 hc         1 3PC      -0.000633
     55 H213         2.9770    -5.4130     9.7000 hc         1 3PC      -0.000633
     56 H71         10.2260    -0.7570     4.8290 hc         1 3PC       0.044200
     57 H72         10.0760     1.0030     4.7340 hc         1 3PC       0.044200
     58 H61         10.1280    -0.6310     7.2970 hc         1 3PC       0.015700
     59 H62          9.9780     1.1290     7.2010 hc         1 3PC       0.015700
     60 H51         14.4750     1.8220     7.8180 h1         1 3PC       0.023200
     61 H52         14.7730     0.0880     8.0070 h1         1 3PC       0.023200
     62 H41         13.7190     1.8890    10.2150 hx         1 3PC       0.065200
     63 H42         15.4210     1.4420    10.0260 hx         1 3PC       0.065200
     64 H11         14.9980    -2.0470    10.6430 hx         1 3PC       0.070589
     65 H12         15.9780    -0.8290     9.8140 hx         1 3PC       0.070589
     66 H13         14.5470    -1.5040     9.0210 hx         1 3PC       0.070589
     67 H21         14.3030    -0.9110    12.4970 hx         1 3PC       0.070589
     68 H22         13.8720     0.8020    12.4110 hx         1 3PC       0.070589
     69 H23         15.5310     0.2890    12.0710 hx         1 3PC       0.070589
     70 H31         12.4520    -1.1740    11.2240 hx         1 3PC       0.070589
     71 H32         12.1210     0.4050    10.4980 hx         1 3PC       0.070589
     72 H33         12.5570    -0.9670     9.4700 hx         1 3PC       0.070589
@<TRIPOS>BOND
     1     1     2 1   
     2     1    31 1   
     3     1    32 1   
     4     1    33 1   
     5     2     3 1   
     6     2    34 1   
     7     2    35 1   
     8     3     4 1   
     9     3    36 1   
    10     3    37 1   
    11     4     5 1   
    12     4    38 1   
    13     4    39 1   
    14     5     6 1   
    15     5    40 1   
    16     5    41 1   
    17     6     7 2   
    18     6     8 1   
    19     8     9 1   
    20     9    10 1   
    21     9    42 1   
    22     9    43 1   
    23    10    11 1   
    24    10    19 1   
    25    10    44 1   
    26    11    12 1   
    27    12    13 2   
    28    12    14 1   
    29    14    15 1   
    30    14    45 1   
    31    14    46 1   
    32    15    16 1   
    33    15    47 1   
    34    15    48 1   
    35    16    17 1   
    36    16    49 1   
    37    16    50 1   
    38    17    18 1   
    39    17    51 1   
    40    17    52 1   
    41    18    53 1   
    42    18    54 1   
    43    18    55 1   
    44    19    20 1   
    45    19    56 1   
    46    19    57 1   
    47    20    21 1   
    48    20    58 1   
    49    20    59 1   
    50    21    22 1   
    51    21    23 1   
    52    21    24 1   
    53    24    25 1   
    54    25    26 1   
    55    25    60 1   
    56    25    61 1   
    57    26    27 1   
    58    26    62 1   
    59    26    63 1   
    60    27    28 1   
    61    27    29 1   
    62    27    30 1   
    63    28    64 1   
    64    28    65 1   
    65    28    66 1   
    66    29    67 1   
    67    29    68 1   
    68    29    69 1   
    69    30    70 1   
    70    30    71 1   
    71    30    72 1   
@<TRIPOS>SUBSTRUCTURE
     1 3PC         1 TEMP              0 ****  ****    0 ROOT
