@<TRIPOS>MOLECULE
3PD
   35    37     1     0     0
SMALL
bcc


@<TRIPOS>ATOM
      1 O5'         1.7630    0.3020   -0.9530 oh        1 3PD     -0.670800
      2 C5'         1.9990   -0.7030   -0.0020 c3        1 3PD      0.157400
      3 C4'         2.0450   -0.1410    1.4190 c3        1 3PD      0.045100
      4 O4'         1.5060   -1.1310    2.3250 os        1 3PD     -0.443600
      5 C1'         2.4900   -1.5630    3.2530 c3        1 3PD      0.249800
      6 C2'         3.7290   -0.6660    3.1150 c3        1 3PD     -0.146400
      7 C3'         3.4800    0.2450    1.8860 c3        1 3PD      0.237100
      8 O3'         3.5530    1.5600    2.2290 os        1 3PD     -0.540200
      9 N9          2.7430   -2.9960    3.0330 na        1 3PD     -0.168900
     10 C4          3.0660   -3.9390    4.0050 cc        1 3PD      0.063800
     11 N3          3.2680   -3.7710    5.3670 nc        1 3PD     -0.614100
     12 C2          3.5810   -4.8910    6.0350 cd        1 3PD      0.600800
     13 N2          3.7430   -4.8400    7.4660 nh        1 3PD     -0.867800
     14 N1          3.7350   -6.1640    5.4450 n         1 3PD     -0.499400
     15 C6          3.5230   -6.3930    4.0610 c         1 3PD      0.647000
     16 O6          3.6510   -7.5630    3.6570 o         1 3PD     -0.650500
     17 C5          3.1840   -5.2050    3.3090 cd        1 3PD      0.186800
     18 N7          2.9310   -5.0290    1.9510 nd        1 3PD     -0.637000
     19 C8          2.6750   -3.7060    1.8200 cc        1 3PD      0.430400
     20 P           4.5740    2.4730    1.1210 p5        1 3PD      1.325900
     21 O1P         4.4460    3.8780    1.6160 o         1 3PD     -0.923833
     22 O2P         3.8500    2.1110   -0.1560 o         1 3PD     -0.923833
     23 O1          5.8820    1.7650    1.3170 o         1 3PD     -0.923833
     24 H5'         2.4370    1.0120   -0.8150 ho        1 3PD      0.508000
     25 H5'1        1.1400   -1.4230   -0.1040 h1        1 3PD      0.003200
     26 H5'2        2.9550   -1.2450   -0.2400 h1        1 3PD      0.003200
     27 H4'         1.3610    0.7460    1.5080 h1        1 3PD      0.094700
     28 H1'         2.0150   -1.4930    4.2770 h2        1 3PD      0.068700
     29 H2'1        4.6750   -1.2390    2.9840 hc        1 3PD      0.066700
     30 H2'2        3.8240   -0.0300    4.0290 hc        1 3PD      0.066700
     31 H3'         4.2230   -0.0030    1.0710 h1        1 3PD      0.069700
     32 HN21        3.4760   -3.9430    7.8280 hn        1 3PD      0.385800
     33 HN22        4.6910   -5.0460    7.7180 hn        1 3PD      0.385800
     34 HN1         3.9280   -6.9530    6.0190 hn        1 3PD      0.322500
     35 H8          2.4320   -3.1800    0.8840 h5        1 3PD      0.090100
@<TRIPOS>BOND
     1    1    2 1   
     2    1   24 1   
     3    2    3 1   
     4    2   25 1   
     5    2   26 1   
     6    3    4 1   
     7    3    7 1   
     8    3   27 1   
     9    4    5 1   
    10    5    6 1   
    11    5    9 1   
    12    5   28 1   
    13    6    7 1   
    14    6   29 1   
    15    6   30 1   
    16    7    8 1   
    17    7   31 1   
    18    8   20 1   
    19    9   10 1   
    20    9   19 1   
    21   10   11 1   
    22   10   17 2   
    23   11   12 2   
    24   12   13 1   
    25   12   14 1   
    26   13   32 1   
    27   13   33 1   
    28   14   15 1   
    29   14   34 1   
    30   15   16 2   
    31   15   17 1   
    32   17   18 1   
    33   18   19 2   
    34   19   35 1   
    35   20   21 1   
    36   20   22 1   
    37   20   23 1   
@<TRIPOS>SUBSTRUCTURE
     1 3PD         1 TEMP              0 ****  ****    0 ROOT
