@<TRIPOS>MOLECULE
3PE
  133   132     1     0     0
SMALL
bcc


@<TRIPOS>ATOM
      1 P            0.0000     0.0000     0.0000 p5         1 3PE       0.934800
      2 N            0.3820    -3.7320    -2.2580 nz         1 3PE       0.052400
      3 O11          1.6340     0.0000     0.0000 os         1 3PE      -0.487200
      4 O12         -0.4690     0.0000     1.4400 o          1 3PE      -0.606000
      5 O13         -0.2860    -1.4720    -0.6560 os         1 3PE      -0.510200
      6 O14         -0.4990     1.0540    -0.9660 o          1 3PE      -0.606000
      7 C11          0.3230    -2.6170    -0.0810 c3         1 3PE       0.256400
      8 C12         -0.0890    -3.8540    -0.8550 c3         1 3PE      -0.054200
      9 C1           2.3250    -0.0000    -1.2460 c3         1 3PE       0.231400
     10 C2           3.8310    -0.0000    -1.0010 c3         1 3PE       0.161100
     11 C3           4.2680     1.2300    -0.2170 c3         1 3PE       0.208400
     12 O31          5.6800     1.1630     0.0050 os         1 3PE      -0.424900
     13 O32          5.6010     3.1710     1.1380 o          1 3PE      -0.551000
     14 C31          6.2170     2.2080     0.7020 c          1 3PE       0.702100
     15 C32          7.7050     1.9850     0.8480 c3         1 3PE      -0.089400
     16 C33          8.3760     3.1070     1.6400 c3         1 3PE      -0.016400
     17 C34          9.8730     2.8440     1.8150 c3         1 3PE      -0.023400
     18 C35         10.5820     3.9010     2.6640 c3         1 3PE      -0.023400
     19 C36         12.0640     3.5990     2.9000 c3         1 3PE      -0.018400
     20 C37         12.7280     4.7050     3.7250 c3         1 3PE      -0.020400
     21 C38         14.2180     4.4610     3.9880 c3         1 3PE      -0.023400
     22 C39         14.9520     5.5640     4.7560 c3         1 3PE      -0.020400
     23 C3A         16.4530     5.3040     4.9120 c3         1 3PE      -0.018400
     24 C3B         17.1360     6.4500     5.6640 c3         1 3PE      -0.023400
     25 C3C         18.6470     6.2550     5.8260 c3         1 3PE      -0.021400
     26 C3D         19.3240     7.3890     6.6000 c3         1 3PE      -0.021400
     27 C3E         20.8330     7.1880     6.7730 c3         1 3PE      -0.023400
     28 C3F         21.5070     8.3080     7.5700 c3         1 3PE      -0.019400
     29 C3G         23.0210     8.0920     7.6490 c3         1 3PE      -0.025400
     30 C3H         23.7450     9.1720     8.4570 c3         1 3PE      -0.026400
     31 C3I         25.2520     8.9770     8.5170 c3         1 3PE       0.011900
     32 O21          4.1700    -1.1570    -0.2330 os         1 3PE      -0.368900
     33 O22          3.3370    -2.5150    -1.8990 o          1 3PE      -0.652000
     34 C21          3.8650    -2.3580    -0.8080 c          1 3PE       0.744100
     35 C22          4.2840    -3.4700     0.1270 c3         1 3PE      -0.107400
     36 C23          3.9940    -4.8510    -0.4600 c3         1 3PE      -0.004400
     37 C24          4.4630    -5.9630     0.4800 c3         1 3PE      -0.028400
     38 C25          4.2620    -7.3690    -0.0930 c3         1 3PE      -0.019400
     39 C26          4.7980    -8.4790     0.8160 c3         1 3PE      -0.018400
     40 C27          4.5410    -9.8610     0.2100 c3         1 3PE      -0.019400
     41 C28          5.0480   -11.0140     1.0800 c3         1 3PE      -0.023400
     42 C29          4.7640   -12.4260     0.5550 c3         1 3PE      -0.019400
     43 C2A          5.2200   -13.5340     1.5080 c3         1 3PE      -0.018400
     44 C2B          4.8870   -14.9170     0.9430 c3         1 3PE      -0.023400
     45 C2C          5.2970   -16.0670     1.8700 c3         1 3PE      -0.021400
     46 C2D          4.9870   -17.4500     1.2910 c3         1 3PE      -0.021400
     47 C2E          5.4070   -18.6000     2.2130 c3         1 3PE      -0.023400
     48 C2F          5.1230   -19.9840     1.6250 c3         1 3PE      -0.019400
     49 C2G          5.4970   -21.0910     2.6150 c3         1 3PE      -0.025400
     50 C2H          5.2530   -22.5000     2.0700 c3         1 3PE      -0.025400
     51 C2I          5.5980   -23.6020     3.0600 c3         1 3PE       0.011900
     52 HN1          1.3810    -3.7850    -2.2810 hn         1 3PE       0.227800
     53 HN2         -0.0040    -4.4760    -2.8050 hn         1 3PE       0.227800
     54 HN3          0.0860    -2.8530    -2.6350 hn         1 3PE       0.227800
     55 H111         0.0070    -2.7140     0.9500 h1         1 3PE       0.017700
     56 H112         1.4010    -2.5090    -0.1190 h1         1 3PE       0.017700
     57 H121         0.3550    -4.7310    -0.3990 hx         1 3PE       0.064700
     58 H122        -1.1680    -3.9460    -0.8420 hx         1 3PE       0.064700
     59 H11          2.0530     0.8840    -1.8090 h1         1 3PE      -0.000300
     60 H12          2.0520    -0.8840    -1.8090 h1         1 3PE      -0.000300
     61 H2           4.3520    -0.0300    -1.9510 h1         1 3PE       0.017700
     62 H31          4.0320     2.1240    -0.7830 h1         1 3PE       0.038200
     63 H32          3.7520     1.2570     0.7340 h1         1 3PE       0.038200
     64 H321         7.8710     1.0450     1.3590 hc         1 3PE       0.034700
     65 H322         8.1510     1.9340    -0.1380 hc         1 3PE       0.034700
     66 H331         7.9130     3.1790     2.6160 hc         1 3PE       0.026200
     67 H332         8.2400     4.0440     1.1130 hc         1 3PE       0.026200
     68 H341        10.3370     2.8170     0.8360 hc         1 3PE       0.008200
     69 H342        10.0020     1.8770     2.2860 hc         1 3PE       0.008200
     70 H351        10.0850     3.9660     3.6240 hc         1 3PE       0.014200
     71 H352        10.4990     4.8590     2.1650 hc         1 3PE       0.014200
     72 H361        12.1550     2.6580     3.4290 hc         1 3PE       0.010700
     73 H362        12.5670     3.5190     1.9440 hc         1 3PE       0.010700
     74 H371        12.2170     4.7810     4.6770 hc         1 3PE       0.011700
     75 H372        12.6190     5.6440     3.1970 hc         1 3PE       0.011700
     76 H381        14.7120     4.3310     3.0320 hc         1 3PE       0.007700
     77 H382        14.3150     3.5390     4.5480 hc         1 3PE       0.007700
     78 H391        14.5110     5.6520     5.7410 hc         1 3PE       0.010700
     79 H392        14.8160     6.5010     4.2300 hc         1 3PE       0.010700
     80 H3A1        16.9010     5.2060     3.9310 hc         1 3PE       0.011700
     81 H3A2        16.5980     4.3820     5.4620 hc         1 3PE       0.011700
     82 H3B1        16.6900     6.5340     6.6470 hc         1 3PE       0.011700
     83 H3B2        16.9610     7.3720     5.1230 hc         1 3PE       0.011700
     84 H3C1        19.0960     6.1910     4.8420 hc         1 3PE       0.010200
     85 H3C2        18.8220     5.3240     6.3500 hc         1 3PE       0.010200
     86 H3D1        19.1560     8.3190     6.0710 hc         1 3PE       0.010700
     87 H3D2        18.8690     7.4590     7.5810 hc         1 3PE       0.010700
     88 H3E1        21.2900     7.1360     5.7920 hc         1 3PE       0.010700
     89 H3E2        21.0010     6.2480     7.2840 hc         1 3PE       0.010700
     90 H3F1        21.3080     9.2570     7.0880 hc         1 3PE       0.011700
     91 H3F2        21.0980     8.3260     8.5730 hc         1 3PE       0.011700
     92 H3G1        23.4230     8.0830     6.6440 hc         1 3PE       0.010700
     93 H3G2        23.2110     7.1300     8.1090 hc         1 3PE       0.010700
     94 H3H1        23.5390    10.1370     8.0080 hc         1 3PE       0.008700
     95 H3H2        23.3550     9.1690     9.4670 hc         1 3PE       0.008700
     96 H3I1        25.4740     8.0210     8.9750 hc         1 3PE       0.000033
     97 H3I2        25.6960     9.7710     9.1060 hc         1 3PE       0.000033
     98 H3I3        25.6600     9.0000     7.5140 hc         1 3PE       0.000033
     99 H221         3.7460    -3.3660     1.0610 hc         1 3PE       0.052200
    100 H222         5.3460    -3.3860     0.3200 hc         1 3PE       0.052200
    101 H231         4.5080    -4.9490    -1.4090 hc         1 3PE       0.002700
    102 H232         2.9270    -4.9510    -0.6230 hc         1 3PE       0.002700
    103 H241         3.9120    -5.8860     1.4100 hc         1 3PE       0.018200
    104 H242         5.5160    -5.8210     0.6870 hc         1 3PE       0.018200
    105 H251         3.2020    -7.5310    -0.2500 hc         1 3PE       0.006200
    106 H252         4.7670    -7.4290    -1.0490 hc         1 3PE       0.006200
    107 H261         4.3070    -8.4170     1.7800 hc         1 3PE       0.015700
    108 H262         5.8640    -8.3440     0.9510 hc         1 3PE       0.015700
    109 H271         3.4740    -9.9810     0.0640 hc         1 3PE       0.008200
    110 H272         5.0320    -9.9120    -0.7540 hc         1 3PE       0.008200
    111 H281         6.1200   -10.9060     1.1910 hc         1 3PE       0.010700
    112 H282         4.5950   -10.9220     2.0600 hc         1 3PE       0.010700
    113 H291         5.2750   -12.5520    -0.3920 hc         1 3PE       0.009700
    114 H292         3.6980   -12.5260     0.3920 hc         1 3PE       0.009700
    115 H2A1         4.7210   -13.4100     2.4620 hc         1 3PE       0.012700
    116 H2A2         6.2910   -13.4590     1.6550 hc         1 3PE       0.012700
    117 H2B1         5.3970   -15.0370    -0.0050 hc         1 3PE       0.010700
    118 H2B2         3.8180   -14.9740     0.7730 hc         1 3PE       0.010700
    119 H2C1         6.3620   -15.9990     2.0550 hc         1 3PE       0.010700
    120 H2C2         4.7730   -15.9580     2.8110 hc         1 3PE       0.010700
    121 H2D1         5.5050   -17.5560     0.3460 hc         1 3PE       0.010200
    122 H2D2         3.9200   -17.5210     1.1130 hc         1 3PE       0.010200
    123 H2E1         4.8740   -18.5050     3.1510 hc         1 3PE       0.011200
    124 H2E2         6.4700   -18.5170     2.4080 hc         1 3PE       0.011200
    125 H2F1         5.6990   -20.1100     0.7170 hc         1 3PE       0.011700
    126 H2F2         4.0680   -20.0600     1.3900 hc         1 3PE       0.011700
    127 H2G1         4.9120   -20.9620     3.5180 hc         1 3PE       0.010700
    128 H2G2         6.5470   -20.9930     2.8650 hc         1 3PE       0.010700
    129 H2H1         5.8530   -22.6350     1.1790 hc         1 3PE       0.008700
    130 H2H2         4.2070   -22.5910     1.8020 hc         1 3PE       0.008700
    131 H2I1         5.4070   -24.5670     2.6070 hc         1 3PE       0.000367
    132 H2I2         4.9890   -23.4930     3.9490 hc         1 3PE       0.000367
    133 H2I3         6.6450   -23.5310     3.3290 hc         1 3PE       0.000367
@<TRIPOS>BOND
     1     1     3 1   
     2     1     4 1   
     3     1     5 1   
     4     1     6 1   
     5     2     8 1   
     6     2    52 1   
     7     2    53 1   
     8     2    54 1   
     9     3     9 1   
    10     5     7 1   
    11     7     8 1   
    12     7    55 1   
    13     7    56 1   
    14     8    57 1   
    15     8    58 1   
    16     9    10 1   
    17     9    59 1   
    18     9    60 1   
    19    10    11 1   
    20    10    32 1   
    21    10    61 1   
    22    11    12 1   
    23    11    62 1   
    24    11    63 1   
    25    12    14 1   
    26    13    14 2   
    27    14    15 1   
    28    15    16 1   
    29    15    64 1   
    30    15    65 1   
    31    16    17 1   
    32    16    66 1   
    33    16    67 1   
    34    17    18 1   
    35    17    68 1   
    36    17    69 1   
    37    18    19 1   
    38    18    70 1   
    39    18    71 1   
    40    19    20 1   
    41    19    72 1   
    42    19    73 1   
    43    20    21 1   
    44    20    74 1   
    45    20    75 1   
    46    21    22 1   
    47    21    76 1   
    48    21    77 1   
    49    22    23 1   
    50    22    78 1   
    51    22    79 1   
    52    23    24 1   
    53    23    80 1   
    54    23    81 1   
    55    24    25 1   
    56    24    82 1   
    57    24    83 1   
    58    25    26 1   
    59    25    84 1   
    60    25    85 1   
    61    26    27 1   
    62    26    86 1   
    63    26    87 1   
    64    27    28 1   
    65    27    88 1   
    66    27    89 1   
    67    28    29 1   
    68    28    90 1   
    69    28    91 1   
    70    29    30 1   
    71    29    92 1   
    72    29    93 1   
    73    30    31 1   
    74    30    94 1   
    75    30    95 1   
    76    31    96 1   
    77    31    97 1   
    78    31    98 1   
    79    32    34 1   
    80    33    34 2   
    81    34    35 1   
    82    35    36 1   
    83    35    99 1   
    84    35   100 1   
    85    36    37 1   
    86    36   101 1   
    87    36   102 1   
    88    37    38 1   
    89    37   103 1   
    90    37   104 1   
    91    38    39 1   
    92    38   105 1   
    93    38   106 1   
    94    39    40 1   
    95    39   107 1   
    96    39   108 1   
    97    40    41 1   
    98    40   109 1   
    99    40   110 1   
   100    41    42 1   
   101    41   111 1   
   102    41   112 1   
   103    42    43 1   
   104    42   113 1   
   105    42   114 1   
   106    43    44 1   
   107    43   115 1   
   108    43   116 1   
   109    44    45 1   
   110    44   117 1   
   111    44   118 1   
   112    45    46 1   
   113    45   119 1   
   114    45   120 1   
   115    46    47 1   
   116    46   121 1   
   117    46   122 1   
   118    47    48 1   
   119    47   123 1   
   120    47   124 1   
   121    48    49 1   
   122    48   125 1   
   123    48   126 1   
   124    49    50 1   
   125    49   127 1   
   126    49   128 1   
   127    50    51 1   
   128    50   129 1   
   129    50   130 1   
   130    51   131 1   
   131    51   132 1   
   132    51   133 1   
@<TRIPOS>SUBSTRUCTURE
     1 3PE         1 TEMP              0 ****  ****    0 ROOT
