@<TRIPOS>MOLECULE
molecule
   22    23     1     0     0
SMALL
bcc


@<TRIPOS>ATOM
      1 CAA          0.0000     0.0000     0.0000 c3         1 3PF       0.132300
      2 OAB          0.6570    -0.0020     2.5920 o          1 3PF      -0.687500
      3 CAC          6.2760     0.0000     0.0000 ca         1 3PF      -0.159000
      4 CAD          6.3860     0.0000     1.3790 ca         1 3PF      -0.090000
      5 CAE          5.0260    -0.0010    -0.5950 ca         1 3PF      -0.084000
      6 CAF          5.2530    -0.0060     2.1700 ca         1 3PF      -0.177000
      7 CAG          2.5140    -0.0000    -0.4220 c3         1 3PF       0.155300
      8 NAH          2.8410    -0.0120     2.3580 ns         1 3PF      -0.466100
      9 CAI          1.6090    -0.0000     1.8340 c          1 3PF       0.822500
     10 CAJ          3.8970    -0.0000     0.1900 ca         1 3PF      -0.145300
     11 CAK          3.9980    -0.0110     1.5770 ca         1 3PF       0.084600
     12 NAL          1.3740    -0.0000     0.5100 n          1 3PF      -0.498800
     13 HAA          0.0170    -0.0000    -1.0830 h1         1 3PF       0.045033
     14 HAAA        -0.5160     0.8850     0.3530 h1         1 3PF       0.045033
     15 HAAB        -0.5170    -0.8840     0.3530 h1         1 3PF       0.045033
     16 HAC          7.1690     0.0040    -0.6140 ha         1 3PF       0.135000
     17 HAD          7.3650     0.0000     1.8410 ha         1 3PF       0.134000
     18 HAE          4.9370    -0.0010    -1.6750 ha         1 3PF       0.135000
     19 HAF          5.3440    -0.0050     3.2490 ha         1 3PF       0.136000
     20 HAG          2.4300    -0.8790    -1.0500 h1         1 3PF       0.044700
     21 HAGA         2.4290     0.8780    -1.0510 h1         1 3PF       0.044700
     22 HNAH         2.9370    -0.0210     3.3540 hn         1 3PF       0.350500
@<TRIPOS>BOND
     1     1    12 1
     2     1    13 1
     3     1    14 1
     4     1    15 1
     5     9     2 2
     6     5     3 ar
     7     3     4 ar
     8     3    16 1
     9     4     6 ar
    10     4    17 1
    11     5    10 ar
    12     5    18 1
    13    11     6 ar
    14     6    19 1
    15     7    12 1
    16     7    10 1
    17     7    20 1
    18     7    21 1
    19     9     8 1
    20    11     8 1
    21     8    22 1
    22    12     9 1
    23    10    11 ar
@<TRIPOS>SUBSTRUCTURE
     1 3PF         1 TEMP              0 ****  ****    0 ROOT
