@<TRIPOS>MOLECULE
3PG
   15    14     1     0     0
SMALL
bcc


@<TRIPOS>ATOM
      1 C1          0.1140   -0.4340   -0.0810 c         1 3PG      0.885600
      2 O1         -0.5810   -0.0110    0.9000 o         1 3PG     -0.900300
      3 O2         -0.4040   -1.1790   -0.9720 o         1 3PG     -0.900300
      4 C2          1.6180   -0.1010   -0.1270 c3        1 3PG      0.019100
      5 O3          2.1150   -0.1290    1.2110 oh        1 3PG     -0.639800
      6 C3          1.9280    1.2470   -0.8200 c3        1 3PG      0.205400
      7 O1P         3.1860    1.2440   -1.3820 os        1 3PG     -0.583200
      8 P           4.0080    2.7570   -1.4710 p5        1 3PG      1.326900
      9 O2P         3.6730    3.4630   -0.1790 o         1 3PG     -0.950500
     10 O3P         5.4500    2.3310   -1.6150 o         1 3PG     -0.950500
     11 O4P         3.4220    3.4060   -2.7030 o         1 3PG     -0.950500
     12 H2          2.1770   -0.9220   -0.6480 h1        1 3PG      0.049700
     13 HO3         1.6220    0.5560    1.6790 ho        1 3PG      0.391000
     14 H31         1.1370    1.3760   -1.6200 h1        1 3PG     -0.001800
     15 H32         1.8360    2.0870   -0.0740 h1        1 3PG     -0.001800
@<TRIPOS>BOND
     1    1    2 1   
     2    1    3 1   
     3    1    4 1   
     4    4    5 1   
     5    4    6 1   
     6    4   12 1   
     7    5   13 1   
     8    6    7 1   
     9    6   14 1   
    10    6   15 1   
    11    7    8 1   
    12    8    9 1   
    13    8   10 1   
    14    8   11 1   
@<TRIPOS>SUBSTRUCTURE
     1 3PG         1 TEMP              0 ****  ****    0 ROOT
