@<TRIPOS>MOLECULE
molecule
   15    14     1     0     0
SMALL
bcc


@<TRIPOS>ATOM
      1 C1           0.0000     0.0000     0.0000 c          1 3PG       0.882600
      2 O1          -0.6060     0.0000     1.0450 o          1 3PG      -0.884800
      3 O2          -0.6710     0.0000    -1.1620 o          1 3PG      -0.884800
      4 C2           1.5060     0.0000     0.0000 c3         1 3PG       0.041100
      5 O3           1.9820     0.0000     1.3470 oh         1 3PG      -0.591800
      6 C3           2.0170     1.2490    -0.7210 c3         1 3PG       0.168400
      7 O1P          3.4440     1.2480    -0.7210 os         1 3PG      -0.569200
      8 P            3.9110     2.5810    -1.4910 p5         1 3PG       1.196900
      9 O2P          3.3860     3.7700    -0.7840 o          1 3PG      -0.936833
     10 O3P          5.5190     2.6470    -1.5280 o          1 3PG      -0.936833
     11 O4P          3.3400     2.5590    -2.9960 o          1 3PG      -0.936833
     12 H2           1.8670    -0.8850    -0.5100 h1         1 3PG       0.002700
     13 HO3          2.2890    -0.8630     1.5720 ho         1 3PG       0.340000
     14 H31          1.6560     1.2500    -1.7420 h1         1 3PG       0.054700
     15 H32          1.6570     2.1340    -0.2100 h1         1 3PG       0.054700
@<TRIPOS>BOND
     1     1     2 1
     2     1     3 1
     3     1     4 1
     4     4     5 1
     5     4     6 1
     6     4    12 1
     7     5    13 1
     8     6     7 1
     9     6    14 1
    10     6    15 1
    11     7     8 1
    12     8     9 1
    13     8    10 1
    14     8    11 1
@<TRIPOS>SUBSTRUCTURE
     1 3PG         1 TEMP              0 ****  ****    0 ROOT
