@<TRIPOS>MOLECULE
molecule
  123   122     1     0     0
SMALL
bcc


@<TRIPOS>ATOM
      1 O13          0.0000     0.0000     0.0000 o          1 3PH      -0.909833
      2 P            1.6100     0.0000     0.0000 p5         1 3PH       1.177900
      3 O14          2.1470     0.0000     1.5180 o          1 3PH      -0.909833
      4 O12          2.1030    -1.2090    -0.6980 o          1 3PH      -0.909833
      5 O11          2.1470     1.3150    -0.7590 os         1 3PH      -0.560200
      6 C1           3.5330     1.5530    -1.0170 c3         1 3PH       0.205400
      7 C2           3.6930     2.8860    -1.7510 c3         1 3PH       0.132100
      8 O21          3.2730     3.9700    -0.8820 os         1 3PH      -0.387900
      9 C21          4.2120     4.5220    -0.0970 c          1 3PH       0.640100
     10 O22          5.3480     4.1120    -0.1360 o          1 3PH      -0.587000
     11 C22          3.8490     5.6520     0.8310 c3         1 3PH      -0.129400
     12 C23          5.0920     6.0950     1.6050 c3         1 3PH      -0.071400
     13 C24          4.7250     7.2430     2.5470 c3         1 3PH      -0.084400
     14 C25          5.9680     7.6850     3.3220 c3         1 3PH      -0.080400
     15 C26          5.6000     8.8330     4.2640 c3         1 3PH      -0.082400
     16 C27          6.8430     9.2750     5.0380 c3         1 3PH      -0.082400
     17 C28          6.4760    10.4230     5.9810 c3         1 3PH      -0.082400
     18 C29          7.7190    10.8650     6.7550 c3         1 3PH      -0.082400
     19 C2A          7.3510    12.0130     7.6980 c3         1 3PH      -0.082400
     20 C2B          8.5940    12.4560     8.4720 c3         1 3PH      -0.082400
     21 C2C          8.2270    13.6030     9.4140 c3         1 3PH      -0.082400
     22 C2D          9.4700    14.0450    10.1890 c3         1 3PH      -0.082400
     23 C2E          9.1020    15.1930    11.1310 c3         1 3PH      -0.082400
     24 C2F         10.3460    15.6360    11.9050 c3         1 3PH      -0.082400
     25 C2G          9.9770    16.7840    12.8480 c3         1 3PH      -0.081400
     26 C2H         11.2210    17.2250    13.6220 c3         1 3PH      -0.084400
     27 C2I         10.8530    18.3740    14.5650 c3         1 3PH      -0.092100
     28 C3           2.8290     2.8800    -3.0140 c3         1 3PH       0.165400
     29 O31          1.4550     2.5760    -2.6580 os         1 3PH      -0.312900
     30 C31          0.5620     2.5320    -3.6600 c          1 3PH       0.642100
     31 O32          0.9170     2.7410    -4.7950 o          1 3PH      -0.633000
     32 C32         -0.8840     2.2230    -3.3670 c3         1 3PH      -0.128400
     33 C33         -1.6830     2.2350    -4.6720 c3         1 3PH      -0.071400
     34 C34         -3.1500     1.9210    -4.3750 c3         1 3PH      -0.083400
     35 C35         -3.9490     1.9330    -5.6800 c3         1 3PH      -0.081400
     36 C36         -5.4170     1.6190    -5.3840 c3         1 3PH      -0.082400
     37 C37         -6.2150     1.6310    -6.6880 c3         1 3PH      -0.082400
     38 C38         -7.6830     1.3170    -6.3920 c3         1 3PH      -0.082400
     39 C39         -8.4800     1.3280    -7.6980 c3         1 3PH      -0.082400
     40 C3A         -9.9490     1.0150    -7.4000 c3         1 3PH      -0.082400
     41 C3B        -10.7460     1.0260    -8.7050 c3         1 3PH      -0.082400
     42 C3C        -12.2140     0.7130    -8.4090 c3         1 3PH      -0.082400
     43 C3D        -13.0120     0.7240    -9.7130 c3         1 3PH      -0.082400
     44 C3E        -14.4800     0.4110    -9.4160 c3         1 3PH      -0.082400
     45 C3F        -15.2780     0.4220   -10.7210 c3         1 3PH      -0.082400
     46 C3G        -16.7460     0.1080   -10.4250 c3         1 3PH      -0.081400
     47 C3H        -17.5440     0.1200   -11.7290 c3         1 3PH      -0.084400
     48 C3I        -19.0120    -0.1940   -11.4330 c3         1 3PH      -0.092100
     49 H11          3.9290     0.7530    -1.6310 h1         1 3PH       0.027700
     50 H12          4.0740     1.5890    -0.0790 h1         1 3PH       0.027700
     51 H2           4.7320     3.0250    -2.0250 h1         1 3PH       0.044700
     52 H221         3.0890     5.3180     1.5280 hc         1 3PH       0.069200
     53 H222         3.4670     6.4850     0.2530 hc         1 3PH       0.069200
     54 H231         5.4740     5.2620     2.1820 hc         1 3PH       0.055700
     55 H232         5.8510     6.4290     0.9080 hc         1 3PH       0.055700
     56 H241         4.3440     8.0760     1.9700 hc         1 3PH       0.038200
     57 H242         3.9650     6.9090     3.2440 hc         1 3PH       0.038200
     58 H251         6.7280     8.0190     2.6260 hc         1 3PH       0.041700
     59 H252         6.3490     6.8510     3.9000 hc         1 3PH       0.041700
     60 H261         4.8410     8.4980     4.9610 hc         1 3PH       0.039700
     61 H262         5.2180     9.6660     3.6870 hc         1 3PH       0.039700
     62 H271         7.2250     8.4420     5.6160 hc         1 3PH       0.040700
     63 H272         7.6020     9.6100     4.3410 hc         1 3PH       0.040700
     64 H281         6.0950    11.2570     5.4040 hc         1 3PH       0.039700
     65 H282         5.7170    10.0890     6.6770 hc         1 3PH       0.039700
     66 H291         8.4780    11.1990     6.0590 hc         1 3PH       0.040200
     67 H292         8.1000    10.0310     7.3330 hc         1 3PH       0.040200
     68 H2A1         6.9690    12.8460     7.1200 hc         1 3PH       0.040200
     69 H2A2         6.5920    11.6790     8.3950 hc         1 3PH       0.040200
     70 H2B1         9.3530    12.7900     7.7750 hc         1 3PH       0.040700
     71 H2B2         8.9760    11.6220     9.0490 hc         1 3PH       0.040700
     72 H2C1         7.8460    14.4370     8.8370 hc         1 3PH       0.040700
     73 H2C2         7.4680    13.2690    10.1110 hc         1 3PH       0.040700
     74 H2D1        10.2290    14.3790     9.4920 hc         1 3PH       0.040700
     75 H2D2         9.8510    13.2120    10.7660 hc         1 3PH       0.040700
     76 H2E1         8.3430    14.8590    11.8280 hc         1 3PH       0.040200
     77 H2E2         8.7200    16.0270    10.5540 hc         1 3PH       0.040200
     78 H2F1        10.7270    14.8030    12.4830 hc         1 3PH       0.040200
     79 H2F2        11.1050    15.9700    11.2090 hc         1 3PH       0.040200
     80 H2G1         9.2170    16.4500    13.5440 hc         1 3PH       0.040700
     81 H2G2         9.5960    17.6170    12.2700 hc         1 3PH       0.040700
     82 H2H1        11.9800    17.5590    12.9260 hc         1 3PH       0.039200
     83 H2H2        11.6020    16.3920    14.2000 hc         1 3PH       0.039200
     84 H2I1        10.0930    18.0400    15.2610 hc         1 3PH       0.031033
     85 H2I2        10.4720    19.2070    13.9870 hc         1 3PH       0.031033
     86 H2I3        11.7330    18.6870    15.1130 hc         1 3PH       0.031033
     87 H31          2.8730     3.8540    -3.4860 h1         1 3PH       0.031700
     88 H32          3.1980     2.1290    -3.7010 h1         1 3PH       0.031700
     89 H321        -1.2840     2.9710    -2.6930 hc         1 3PH       0.100700
     90 H322        -0.9580     1.2450    -2.9070 hc         1 3PH       0.100700
     91 H331        -1.6090     3.2130    -5.1320 hc         1 3PH       0.041200
     92 H332        -1.2830     1.4880    -5.3470 hc         1 3PH       0.041200
     93 H341        -3.5500     2.6690    -3.7010 hc         1 3PH       0.049200
     94 H342        -3.2240     0.9430    -3.9150 hc         1 3PH       0.049200
     95 H351        -3.5490     1.1860    -6.3550 hc         1 3PH       0.034700
     96 H352        -3.8750     2.9110    -6.1400 hc         1 3PH       0.034700
     97 H361        -5.8170     2.3660    -4.7090 hc         1 3PH       0.043200
     98 H362        -5.4910     0.6410    -4.9240 hc         1 3PH       0.043200
     99 H371        -6.1410     2.6090    -7.1470 hc         1 3PH       0.036200
    100 H372        -5.8150     0.8840    -7.3630 hc         1 3PH       0.036200
    101 H381        -8.0830     2.0640    -5.7170 hc         1 3PH       0.041700
    102 H382        -7.7570     0.3390    -5.9320 hc         1 3PH       0.041700
    103 H391        -8.4060     2.3060    -8.1580 hc         1 3PH       0.038200
    104 H392        -8.0810     0.5800    -8.3720 hc         1 3PH       0.038200
    105 H3A1       -10.3480     1.7630    -6.7250 hc         1 3PH       0.041200
    106 H3A2       -10.0230     0.0370    -6.9390 hc         1 3PH       0.041200
    107 H3B1       -10.3460     0.2790    -9.3800 hc         1 3PH       0.039200
    108 H3B2       -10.6720     2.0040    -9.1650 hc         1 3PH       0.039200
    109 H3C1       -12.6130     1.4600    -7.7340 hc         1 3PH       0.041200
    110 H3C2       -12.2880    -0.2650    -7.9490 hc         1 3PH       0.041200
    111 H3D1       -12.9380     1.7020   -10.1730 hc         1 3PH       0.039700
    112 H3D2       -12.6130    -0.0230   -10.3880 hc         1 3PH       0.039700
    113 H3E1       -14.5540    -0.5670    -8.9570 hc         1 3PH       0.041200
    114 H3E2       -14.8790     1.1580    -8.7420 hc         1 3PH       0.041200
    115 H3F1       -14.8780    -0.3250   -11.3960 hc         1 3PH       0.040200
    116 H3F2       -15.2040     1.4010   -11.1810 hc         1 3PH       0.040200
    117 H3G1       -16.8200    -0.8700    -9.9660 hc         1 3PH       0.040700
    118 H3G2       -17.1460     0.8550    -9.7500 hc         1 3PH       0.040700
    119 H3H1       -17.1440    -0.6270   -12.4040 hc         1 3PH       0.039200
    120 H3H2       -17.4700     1.0990   -12.1890 hc         1 3PH       0.039200
    121 H3I1       -19.0870    -1.1720   -10.9740 hc         1 3PH       0.030700
    122 H3I2       -19.4120     0.5530   -10.7580 hc         1 3PH       0.030700
    123 H3I3       -19.5770    -0.1850   -12.3570 hc         1 3PH       0.030700
@<TRIPOS>BOND
     1     1     2 1   
     2     2     3 1   
     3     2     4 1   
     4     2     5 1   
     5     5     6 1   
     6     6     7 1   
     7     6    49 1   
     8     6    50 1   
     9     7     8 1   
    10     7    28 1   
    11     7    51 1   
    12     8     9 1   
    13     9    10 2   
    14     9    11 1   
    15    11    12 1   
    16    11    52 1   
    17    11    53 1   
    18    12    13 1   
    19    12    54 1   
    20    12    55 1   
    21    13    14 1   
    22    13    56 1   
    23    13    57 1   
    24    14    15 1   
    25    14    58 1   
    26    14    59 1   
    27    15    16 1   
    28    15    60 1   
    29    15    61 1   
    30    16    17 1   
    31    16    62 1   
    32    16    63 1   
    33    17    18 1   
    34    17    64 1   
    35    17    65 1   
    36    18    19 1   
    37    18    66 1   
    38    18    67 1   
    39    19    20 1   
    40    19    68 1   
    41    19    69 1   
    42    20    21 1   
    43    20    70 1   
    44    20    71 1   
    45    21    22 1   
    46    21    72 1   
    47    21    73 1   
    48    22    23 1   
    49    22    74 1   
    50    22    75 1   
    51    23    24 1   
    52    23    76 1   
    53    23    77 1   
    54    24    25 1   
    55    24    78 1   
    56    24    79 1   
    57    25    26 1   
    58    25    80 1   
    59    25    81 1   
    60    26    27 1   
    61    26    82 1   
    62    26    83 1   
    63    27    84 1   
    64    27    85 1   
    65    27    86 1   
    66    28    29 1   
    67    28    87 1   
    68    28    88 1   
    69    29    30 1   
    70    30    31 2   
    71    30    32 1   
    72    32    33 1   
    73    32    89 1   
    74    32    90 1   
    75    33    34 1   
    76    33    91 1   
    77    33    92 1   
    78    34    35 1   
    79    34    93 1   
    80    34    94 1   
    81    35    36 1   
    82    35    95 1   
    83    35    96 1   
    84    36    37 1   
    85    36    97 1   
    86    36    98 1   
    87    37    38 1   
    88    37    99 1   
    89    37   100 1   
    90    38    39 1   
    91    38   101 1   
    92    38   102 1   
    93    39    40 1   
    94    39   103 1   
    95    39   104 1   
    96    40    41 1   
    97    40   105 1   
    98    40   106 1   
    99    41    42 1   
   100    41   107 1   
   101    41   108 1   
   102    42    43 1   
   103    42   109 1   
   104    42   110 1   
   105    43    44 1   
   106    43   111 1   
   107    43   112 1   
   108    44    45 1   
   109    44   113 1   
   110    44   114 1   
   111    45    46 1   
   112    45   115 1   
   113    45   116 1   
   114    46    47 1   
   115    46   117 1   
   116    46   118 1   
   117    47    48 1   
   118    47   119 1   
   119    47   120 1   
   120    48   121 1   
   121    48   122 1   
   122    48   123 1   
@<TRIPOS>SUBSTRUCTURE
     1 3PH         1 TEMP              0 ****  ****    0 ROOT
