@<TRIPOS>MOLECULE
3PH
  123   122     1     0     0
SMALL
bcc


@<TRIPOS>ATOM
      1 O13        -2.5770    1.3920   -3.0720 o         1 3PH     -0.913167
      2 P          -1.2940    0.6110   -3.0570 p5        1 3PH      1.321900
      3 O14        -1.3020   -0.7820   -2.5040 o         1 3PH     -0.913167
      4 O12        -0.3980    0.8410   -4.2520 o         1 3PH     -0.913167
      5 O11        -0.3750    1.4790   -1.8650 os        1 3PH     -0.566200
      6 C1          0.6780    0.8050   -1.3200 c3        1 3PH      0.225400
      7 C2          2.0600    1.4470   -1.6260 c3        1 3PH      0.075100
      8 O21         2.0930    2.7280   -0.9590 os        1 3PH     -0.394900
      9 C21         3.1940    3.0860   -0.2650 c         1 3PH      0.640100
     10 O22         4.1210    2.2910   -0.0580 o         1 3PH     -0.600000
     11 C22         3.1160    4.5140    0.2020 c3        1 3PH     -0.140400
     12 C23         3.9620    4.7400    1.4350 c3        1 3PH     -0.074400
     13 C24         3.9890    6.2050    1.8120 c3        1 3PH     -0.079400
     14 C25         4.8250    6.4360    3.0530 c3        1 3PH     -0.078400
     15 C26         4.8590    7.9020    3.4290 c3        1 3PH     -0.079400
     16 C27         5.6960    8.1340    4.6690 c3        1 3PH     -0.078400
     17 C28         5.7330    9.6000    5.0420 c3        1 3PH     -0.079400
     18 C29         6.5710    9.8320    6.2820 c3        1 3PH     -0.078400
     19 C2A         6.6080   11.2980    6.6540 c3        1 3PH     -0.079400
     20 C2B         7.4470   11.5300    7.8930 c3        1 3PH     -0.078400
     21 C2C         7.4860   12.9970    8.2640 c3        1 3PH     -0.079400
     22 C2D         8.3260   13.2290    9.5020 c3        1 3PH     -0.078400
     23 C2E         8.3650   14.6960    9.8730 c3        1 3PH     -0.079400
     24 C2F         9.2050   14.9280   11.1110 c3        1 3PH     -0.079400
     25 C2G         9.2450   16.3950   11.4820 c3        1 3PH     -0.079400
     26 C2H        10.0850   16.6280   12.7190 c3        1 3PH     -0.080400
     27 C2I        10.1280   18.0870   13.0920 c3        1 3PH     -0.092100
     28 C3          2.2960    1.6470   -3.1230 c3        1 3PH      0.066400
     29 O31         2.7700    2.9560   -3.4510 os        1 3PH     -0.448900
     30 C31         1.8600    3.9520   -3.7240 c         1 3PH      0.666100
     31 O32         2.4360    4.9680   -4.1470 o         1 3PH     -0.614000
     32 C32         0.4220    3.7430   -3.4460 c3        1 3PH     -0.239400
     33 C33        -0.4960    4.8620   -3.8750 c3        1 3PH     -0.036400
     34 C34        -1.9250    4.4800   -3.5300 c3        1 3PH     -0.122400
     35 C35        -2.8750    4.6280   -4.7000 c3        1 3PH     -0.046400
     36 C36        -4.1620    3.8830   -4.4120 c3        1 3PH     -0.115400
     37 C37        -5.0660    3.8420   -5.6240 c3        1 3PH     -0.064400
     38 C38        -6.3250    3.0510   -5.3340 c3        1 3PH     -0.082400
     39 C39        -7.2170    2.9580   -6.5540 c3        1 3PH     -0.076400
     40 C3A        -8.4700    2.1620   -6.2610 c3        1 3PH     -0.080400
     41 C3B        -9.3600    2.0590   -7.4810 c3        1 3PH     -0.078400
     42 C3C       -10.6110    1.2600   -7.1860 c3        1 3PH     -0.079400
     43 C3D       -11.4990    1.1550   -8.4080 c3        1 3PH     -0.078400
     44 C3E       -12.7500    0.3550   -8.1120 c3        1 3PH     -0.079400
     45 C3F       -13.6370    0.2490   -9.3340 c3        1 3PH     -0.078400
     46 C3G       -14.8880   -0.5510   -9.0380 c3        1 3PH     -0.079400
     47 C3H       -15.7760   -0.6580  -10.2590 c3        1 3PH     -0.080400
     48 C3I       -17.0220   -1.4550   -9.9690 c3        1 3PH     -0.091100
     49 H11         0.5890    0.7950   -0.1920 h1        1 3PH      0.011700
     50 H12         0.7220   -0.2580   -1.7000 h1        1 3PH      0.011700
     51 H2          2.8620    0.7860   -1.1960 h1        1 3PH      0.038700
     52 H221        3.4710    5.1580   -0.6470 hc        1 3PH      0.079700
     53 H222        2.0440    4.7780    0.4020 hc        1 3PH      0.079700
     54 H231        3.5540    4.1350    2.2860 hc        1 3PH      0.049200
     55 H232        5.0050    4.3720    1.2420 hc        1 3PH      0.049200
     56 H241        4.4050    6.8050    0.9610 hc        1 3PH      0.040200
     57 H242        2.9420    6.5670    1.9900 hc        1 3PH      0.040200
     58 H251        5.8700    6.0680    2.8760 hc        1 3PH      0.037700
     59 H252        4.4050    5.8390    3.9050 hc        1 3PH      0.037700
     60 H261        3.8140    8.2690    3.6060 hc        1 3PH      0.039200
     61 H262        5.2780    8.4980    2.5750 hc        1 3PH      0.039200
     62 H271        5.2760    7.5380    5.5220 hc        1 3PH      0.037200
     63 H272        6.7400    7.7640    4.4910 hc        1 3PH      0.037200
     64 H281        4.6880    9.9690    5.2200 hc        1 3PH      0.039200
     65 H282        6.1520   10.1950    4.1880 hc        1 3PH      0.039200
     66 H291        7.6150    9.4620    6.1040 hc        1 3PH      0.038200
     67 H292        6.1510    9.2370    7.1350 hc        1 3PH      0.038200
     68 H2A1        7.0270   11.8920    5.7990 hc        1 3PH      0.039200
     69 H2A2        5.5640   11.6680    6.8320 hc        1 3PH      0.039200
     70 H2B1        7.0280   10.9360    8.7470 hc        1 3PH      0.038700
     71 H2B2        8.4910   11.1600    7.7140 hc        1 3PH      0.038700
     72 H2C1        6.4420   13.3670    8.4430 hc        1 3PH      0.039200
     73 H2C2        7.9040   13.5910    7.4090 hc        1 3PH      0.039200
     74 H2D1        7.9070   12.6360   10.3570 hc        1 3PH      0.038700
     75 H2D2        9.3690   12.8580    9.3230 hc        1 3PH      0.038700
     76 H2E1        7.3210   15.0660   10.0530 hc        1 3PH      0.039200
     77 H2E2        8.7830   15.2890    9.0180 hc        1 3PH      0.039200
     78 H2F1        8.7870   14.3340   11.9660 hc        1 3PH      0.038700
     79 H2F2       10.2490   14.5570   10.9310 hc        1 3PH      0.038700
     80 H2G1        8.2010   16.7650   11.6620 hc        1 3PH      0.039200
     81 H2G2        9.6630   16.9880   10.6260 hc        1 3PH      0.039200
     82 H2H1       11.1280   16.2550   12.5370 hc        1 3PH      0.037700
     83 H2H2        9.6670   16.0320   13.5730 hc        1 3PH      0.037700
     84 H2I1       10.5650   18.6940   12.2630 hc        1 3PH      0.030700
     85 H2I2       10.7520   18.2370   14.0060 hc        1 3PH      0.030700
     86 H2I3        9.1000   18.4700   13.3010 hc        1 3PH      0.030700
     87 H31         3.1460    0.9910   -3.4580 h1        1 3PH      0.109200
     88 H32         1.3450    1.3690   -3.6930 h1        1 3PH      0.109200
     89 H321        0.0580    2.7650   -3.9280 hc        1 3PH      0.158200
     90 H322        0.3230    3.5590   -2.3340 hc        1 3PH      0.158200
     91 H331       -0.2080    5.8190   -3.3660 hc        1 3PH      0.009200
     92 H332       -0.3810    5.0390   -4.9770 hc        1 3PH      0.009200
     93 H341       -1.9660    3.3870   -3.1880 hc        1 3PH      0.085200
     94 H342       -2.2870    5.1070   -2.6750 hc        1 3PH      0.085200
     95 H351       -2.4010    4.1970   -5.6210 hc        1 3PH      0.007200
     96 H352       -3.0860    5.7100   -4.9090 hc        1 3PH      0.007200
     97 H361       -4.7000    4.3740   -3.5600 hc        1 3PH      0.087200
     98 H362       -3.8930    2.8300   -4.0790 hc        1 3PH      0.087200
     99 H371       -4.5180    3.3690   -6.4810 hc        1 3PH      0.017200
    100 H372       -5.3410    4.8830   -5.9410 hc        1 3PH      0.017200
    101 H381       -6.8870    3.5340   -4.4930 hc        1 3PH      0.048200
    102 H382       -6.0370    2.0210   -4.9920 hc        1 3PH      0.048200
    103 H391       -7.4980    3.9890   -6.8960 hc        1 3PH      0.028700
    104 H392       -6.6520    2.4740   -7.3940 hc        1 3PH      0.028700
    105 H3A1       -8.1840    1.1330   -5.9150 hc        1 3PH      0.040700
    106 H3A2       -9.0360    2.6460   -5.4220 hc        1 3PH      0.040700
    107 H3B1       -9.6430    3.0880   -7.8280 hc        1 3PH      0.034200
    108 H3B2       -8.7920    1.5740   -8.3180 hc        1 3PH      0.034200
    109 H3C1      -10.3250    0.2320   -6.8390 hc        1 3PH      0.039700
    110 H3C2      -11.1780    1.7460   -6.3490 hc        1 3PH      0.039700
    111 H3D1      -11.7840    2.1830   -8.7550 hc        1 3PH      0.036200
    112 H3D2      -10.9310    0.6690   -9.2440 hc        1 3PH      0.036200
    113 H3E1      -13.3180    0.8410   -7.2750 hc        1 3PH      0.039200
    114 H3E2      -12.4640   -0.6720   -7.7640 hc        1 3PH      0.039200
    115 H3F1      -13.9220    1.2770   -9.6820 hc        1 3PH      0.037200
    116 H3F2      -13.0690   -0.2370  -10.1700 hc        1 3PH      0.037200
    117 H3G1      -14.6020   -1.5790   -8.6900 hc        1 3PH      0.039200
    118 H3G2      -15.4560   -0.0650   -8.2010 hc        1 3PH      0.039200
    119 H3H1      -16.0590    0.3700  -10.6070 hc        1 3PH      0.036700
    120 H3H2      -15.2050   -1.1430  -11.0940 hc        1 3PH      0.036700
    121 H3I1      -16.7610   -2.4910   -9.6450 hc        1 3PH      0.029367
    122 H3I2      -17.6630   -1.5220  -10.8810 hc        1 3PH      0.029367
    123 H3I3      -17.6170   -0.9740   -9.1550 hc        1 3PH      0.029367
@<TRIPOS>BOND
     1    1    2 1   
     2    2    3 1   
     3    2    4 1   
     4    2    5 1   
     5    5    6 1   
     6    6    7 1   
     7    6   49 1   
     8    6   50 1   
     9    7    8 1   
    10    7   28 1   
    11    7   51 1   
    12    8    9 1   
    13    9   10 2   
    14    9   11 1   
    15   11   12 1   
    16   11   52 1   
    17   11   53 1   
    18   12   13 1   
    19   12   54 1   
    20   12   55 1   
    21   13   14 1   
    22   13   56 1   
    23   13   57 1   
    24   14   15 1   
    25   14   58 1   
    26   14   59 1   
    27   15   16 1   
    28   15   60 1   
    29   15   61 1   
    30   16   17 1   
    31   16   62 1   
    32   16   63 1   
    33   17   18 1   
    34   17   64 1   
    35   17   65 1   
    36   18   19 1   
    37   18   66 1   
    38   18   67 1   
    39   19   20 1   
    40   19   68 1   
    41   19   69 1   
    42   20   21 1   
    43   20   70 1   
    44   20   71 1   
    45   21   22 1   
    46   21   72 1   
    47   21   73 1   
    48   22   23 1   
    49   22   74 1   
    50   22   75 1   
    51   23   24 1   
    52   23   76 1   
    53   23   77 1   
    54   24   25 1   
    55   24   78 1   
    56   24   79 1   
    57   25   26 1   
    58   25   80 1   
    59   25   81 1   
    60   26   27 1   
    61   26   82 1   
    62   26   83 1   
    63   27   84 1   
    64   27   85 1   
    65   27   86 1   
    66   28   29 1   
    67   28   87 1   
    68   28   88 1   
    69   29   30 1   
    70   30   31 2   
    71   30   32 1   
    72   32   33 1   
    73   32   89 1   
    74   32   90 1   
    75   33   34 1   
    76   33   91 1   
    77   33   92 1   
    78   34   35 1   
    79   34   93 1   
    80   34   94 1   
    81   35   36 1   
    82   35   95 1   
    83   35   96 1   
    84   36   37 1   
    85   36   97 1   
    86   36   98 1   
    87   37   38 1   
    88   37   99 1   
    89   37  100 1   
    90   38   39 1   
    91   38  101 1   
    92   38  102 1   
    93   39   40 1   
    94   39  103 1   
    95   39  104 1   
    96   40   41 1   
    97   40  105 1   
    98   40  106 1   
    99   41   42 1   
   100   41  107 1   
   101   41  108 1   
   102   42   43 1   
   103   42  109 1   
   104   42  110 1   
   105   43   44 1   
   106   43  111 1   
   107   43  112 1   
   108   44   45 1   
   109   44  113 1   
   110   44  114 1   
   111   45   46 1   
   112   45  115 1   
   113   45  116 1   
   114   46   47 1   
   115   46  117 1   
   116   46  118 1   
   117   47   48 1   
   118   47  119 1   
   119   47  120 1   
   120   48  121 1   
   121   48  122 1   
   122   48  123 1   
@<TRIPOS>SUBSTRUCTURE
     1 3PH         1 TEMP              0 ****  ****    0 ROOT
