@<TRIPOS>MOLECULE
molecule
   70    73     1     0     0
SMALL
bcc


@<TRIPOS>ATOM
      1 N1           0.0000     0.0000     0.0000 nz         1 3PJ      -0.687400
      2 C2           8.0840     1.8750     0.9090 ca         1 3PJ      -0.111500
      3 C4           6.1170     3.1620     0.4200 ca         1 3PJ      -0.111600
      4 C5           5.4030     2.4200     1.3610 ca         1 3PJ      -0.113500
      5 C6           6.0340     1.4180     2.0690 ca         1 3PJ      -0.111500
      6 C8           8.6910    -0.9460     1.6290 c3         1 3PJ       0.636900
      7 C10          2.1020    -0.0010    -1.3050 c3         1 3PJ      -0.169400
      8 O10          9.0600     0.5970     3.4520 oh         1 3PJ      -0.569800
      9 C12          1.3480     0.0000     0.0000 c          1 3PJ       0.475100
     10 N12          5.3390     4.1520    -1.6790 n          1 3PJ      -0.468800
     11 O13          4.9970     5.2060     0.2460 o          1 3PJ      -0.575100
     12 C14          5.2730     2.8400    -2.3250 c3         1 3PJ       0.126700
     13 C15          5.2860     5.3710    -2.4910 cx         1 3PJ       0.022700
     14 C16          5.9020     1.7880    -1.4070 c3         1 3PJ      -0.123400
     15 C17          5.8330     0.4160    -2.0820 c3         1 3PJ      -0.070400
     16 C18          4.3710     0.0520    -2.3490 c3         1 3PJ      -0.010700
     17 C19          3.7440     1.1040    -3.2660 c3         1 3PJ      -0.070400
     18 C20          3.8120     2.4750    -2.5920 c3         1 3PJ      -0.123400
     19 F21          7.7020    -1.4930     0.8050 f          1 3PJ      -0.216633
     20 F22          9.3220    -1.9700     2.3430 f          1 3PJ      -0.216633
     21 F23          9.6350    -0.2740     0.8440 f          1 3PJ      -0.216633
     22 C24          4.2130     6.4050    -2.1440 cx         1 3PJ      -0.138400
     23 C25          5.6820     6.6860    -1.8180 cx         1 3PJ      -0.138400
     24 C26          4.3030    -1.2990    -3.0130 ca         1 3PJ      -0.091300
     25 C27          3.7510    -2.3730    -2.3400 ca         1 3PJ      -0.138000
     26 C28          3.6900    -3.6120    -2.9490 ca         1 3PJ      -0.114000
     27 C29          4.1790    -3.7780    -4.2300 ca         1 3PJ      -0.116000
     28 C30          4.7310    -2.7030    -4.9040 ca         1 3PJ      -0.114000
     29 C32          3.6060     0.0090    -1.0240 c3         1 3PJ      -0.069400
     30 OAI          1.9530     0.0000     1.0500 o          1 3PJ      -0.398100
     31 CAV          7.4670     2.8820     0.1980 ca         1 3PJ      -0.113500
     32 CAW          4.7880    -1.4630    -4.2970 ca         1 3PJ      -0.138000
     33 CBU          7.0180    -0.6950     3.4690 c3         1 3PJ      -0.132100
     34 CBV          7.3710     1.1420     1.8410 ca         1 3PJ      -0.123300
     35 CBW          5.4490     4.2400    -0.3390 c          1 3PJ       0.675700
     36 CBZ          8.0510     0.0380     2.6100 c3         1 3PJ       0.158100
     37 HN1         -0.3340    -0.1350     0.9340 hn         1 3PJ       0.477467
     38 HN1A        -0.3340     0.8760    -0.3500 hn         1 3PJ       0.477467
     39 H2           9.1310     1.6550     0.7370 ha         1 3PJ       0.156000
     40 H5           4.3560     2.6340     1.5400 ha         1 3PJ       0.144000
     41 H6           5.4800     0.8410     2.8000 ha         1 3PJ       0.156000
     42 H10          1.8350     0.8800    -1.8770 hc         1 3PJ       0.104200
     43 H10A         1.8450    -0.8890    -1.8690 hc         1 3PJ       0.104200
     44 HO10         8.6550     1.0020     4.2020 ho         1 3PJ       0.427000
     45 H14          5.8130     2.8660    -3.2630 h1         1 3PJ       0.068700
     46 H15          5.5320     5.3090    -3.5440 h1         1 3PJ       0.099700
     47 H16          6.9370     2.0460    -1.2210 hc         1 3PJ       0.064450
     48 H16A         5.3580     1.7560    -0.4710 hc         1 3PJ       0.064450
     49 H17          6.2760    -0.3270    -1.4300 hc         1 3PJ       0.057950
     50 H17A         6.3720     0.4500    -3.0200 hc         1 3PJ       0.057950
     51 H19          4.2880     1.1350    -4.2020 hc         1 3PJ       0.057950
     52 H19A         2.7080     0.8460    -3.4530 hc         1 3PJ       0.057950
     53 H20          3.2710     2.4420    -1.6540 hc         1 3PJ       0.064450
     54 H20A         3.3690     3.2190    -3.2440 hc         1 3PJ       0.064450
     55 H24          3.5850     6.1610    -1.2960 hc         1 3PJ       0.089450
     56 H24A         3.8060     6.9570    -2.9830 hc         1 3PJ       0.089450
     57 H25          6.1730     7.4100    -2.4570 hc         1 3PJ       0.089450
     58 H25A         5.9510     6.6130    -0.7710 hc         1 3PJ       0.089450
     59 H27          3.3670    -2.2430    -1.3350 ha         1 3PJ       0.124500
     60 H28          3.2570    -4.4540    -2.4220 ha         1 3PJ       0.140000
     61 H29          4.1330    -4.7500    -4.7060 ha         1 3PJ       0.145000
     62 H30          5.1130    -2.8330    -5.9100 ha         1 3PJ       0.140000
     63 H32          3.8580     0.8810    -0.4330 hc         1 3PJ       0.078200
     64 H32A         3.8780    -0.8870    -0.4790 hc         1 3PJ       0.078200
     65 HAV          8.0270     3.4540    -0.5310 ha         1 3PJ       0.144000
     66 HAW          5.2210    -0.6210    -4.8240 ha         1 3PJ       0.124500
     67 HBU          7.5140    -1.4580     4.0570 hc         1 3PJ       0.061033
     68 HBUA         6.2780    -1.1580     2.8280 hc         1 3PJ       0.061033
     69 HBUB         6.5320     0.0110     4.1310 hc         1 3PJ       0.061033
     70 H13         -0.3340    -0.7510    -0.5710 hn         1 3PJ       0.477467
@<TRIPOS>BOND
     1     1     9 1
     2     1    37 1
     3     1    38 1
     4    31     2 ar
     5     2    34 ar
     6     2    39 1
     7    35     3 1
     8     3    31 ar
     9     3     4 ar
    10     4     5 ar
    11     4    40 1
    12     5    34 ar
    13     5    41 1
    14    36     6 1
    15    20     6 1
    16     6    19 1
    17     6    21 1
    18     9     7 1
    19     7    29 1
    20     7    42 1
    21     7    43 1
    22    36     8 1
    23     8    44 1
    24     9    30 2
    25    13    10 1
    26    35    10 1
    27    10    12 1
    28    11    35 2
    29    14    12 1
    30    12    18 1
    31    12    45 1
    32    22    13 1
    33    23    13 1
    34    13    46 1
    35    14    15 1
    36    14    47 1
    37    14    48 1
    38    15    16 1
    39    15    49 1
    40    15    50 1
    41    29    16 1
    42    16    17 1
    43    16    24 1
    44    18    17 1
    45    17    51 1
    46    17    52 1
    47    18    53 1
    48    18    54 1
    49    22    23 1
    50    22    55 1
    51    22    56 1
    52    23    57 1
    53    23    58 1
    54    24    32 ar
    55    24    25 ar
    56    25    26 ar
    57    25    59 1
    58    26    27 ar
    59    26    60 1
    60    28    27 ar
    61    27    61 1
    62    32    28 ar
    63    28    62 1
    64    29    63 1
    65    29    64 1
    66    31    65 1
    67    32    66 1
    68    33    36 1
    69    33    67 1
    70    33    68 1
    71    33    69 1
    72    34    36 1
    73    70     1 1
@<TRIPOS>SUBSTRUCTURE
     1 3PJ         1 TEMP              0 ****  ****    0 ROOT
