@<TRIPOS>MOLECULE
molecule
   44    43     1     0     0
SMALL
bcc


@<TRIPOS>ATOM
      1 CA1          0.0000     0.0000     0.0000 c          1 3PK       0.630100
      2 OA1          1.2080     0.0000     0.0000 o          1 3PK      -0.553000
      3 CA2         -0.7530     0.0000     1.3050 c3         1 3PK      -0.126400
      4 CA3          0.2410     0.0010     2.4680 c3         1 3PK      -0.072400
      5 CA4         -0.5240     0.0010     3.7930 c3         1 3PK      -0.086400
      6 CA5          0.4700     0.0000     4.9560 c3         1 3PK      -0.090100
      7 CB1         -1.9310    -1.6780    -4.8400 c          1 3PK       0.630100
      8 OB1         -1.6310    -1.0600    -5.8340 o          1 3PK      -0.554000
      9 CB2         -2.7160    -2.9590    -4.9570 c3         1 3PK      -0.126400
     10 CB3         -3.0030    -3.2480    -6.4330 c3         1 3PK      -0.073400
     11 CB4         -3.8000    -4.5500    -6.5510 c3         1 3PK      -0.084400
     12 CB5         -4.0850    -4.8390    -8.0270 c3         1 3PK      -0.082400
     13 CB6         -4.8820    -6.1390    -8.1450 c3         1 3PK      -0.092100
     14 CG1          0.1200     0.0110    -2.3810 c3         1 3PK       0.150400
     15 OG1         -0.6700     0.0060    -1.1630 os         1 3PK      -0.422900
     16 CG2         -0.8120     0.0170    -3.5940 c3         1 3PK       0.147100
     17 OG2         -1.5660    -1.2230    -3.6310 os         1 3PK      -0.419900
     18 CG3         -1.7780     1.1990    -3.4890 c3         1 3PK      -0.111100
     19 H1A2        -1.3750    -0.8850     1.3630 hc         1 3PK       0.071700
     20 H2A2        -1.3760     0.8840     1.3620 hc         1 3PK       0.071700
     21 H1A3         0.8640     0.8850     2.4100 hc         1 3PK       0.058700
     22 H2A3         0.8640    -0.8840     2.4110 hc         1 3PK       0.058700
     23 H1A4        -1.1470    -0.8830     3.8500 hc         1 3PK       0.039700
     24 H2A4        -1.1460     0.8860     3.8500 hc         1 3PK       0.039700
     25 H1A5         1.0910    -0.8860     4.9000 hc         1 3PK       0.035033
     26 H2A5         1.0950     0.8830     4.8980 hc         1 3PK       0.035033
     27 H3A5        -0.0710     0.0020     5.8940 hc         1 3PK       0.035033
     28 H1B2        -3.6520    -2.8600    -4.4210 hc         1 3PK       0.072200
     29 H2B2        -2.1420    -3.7750    -4.5340 hc         1 3PK       0.072200
     30 H1B3        -2.0670    -3.3480    -6.9690 hc         1 3PK       0.058700
     31 H2B3        -3.5770    -2.4330    -6.8560 hc         1 3PK       0.058700
     32 HB4         -3.2260    -5.3650    -6.1280 hc         1 3PK       0.040700
     33 HB5         -4.6590    -4.0240    -8.4500 hc         1 3PK       0.043200
     34 H1B6        -4.3040    -6.9560    -7.7290 hc         1 3PK       0.033367
     35 H2B6        -5.0920    -6.3400    -9.1890 hc         1 3PK       0.033367
     36 H3B6        -5.8140    -6.0430    -7.6010 hc         1 3PK       0.033367
     37 H1G1         0.7440    -0.8740    -2.4100 h1         1 3PK       0.061700
     38 H2G1         0.7450     0.8950    -2.4020 h1         1 3PK       0.061700
     39 HG2         -0.2240     0.1100    -4.4990 h1         1 3PK       0.083700
     40 H1G3        -1.2340     2.0840    -3.1820 hc         1 3PK       0.051367
     41 H2G3        -2.2380     1.3750    -4.4540 hc         1 3PK       0.051367
     42 H3G3        -2.5450     0.9740    -2.7590 hc         1 3PK       0.051367
     43 H25         -4.7360    -4.4500    -6.0150 hc         1 3PK       0.040700
     44 H26         -3.1490    -4.9390    -8.5630 hc         1 3PK       0.043200
@<TRIPOS>BOND
     1     1     2 2   
     2     1     3 1   
     3     3     4 1   
     4     3    19 1   
     5     3    20 1   
     6     4     5 1   
     7     4    21 1   
     8     4    22 1   
     9     5     6 1   
    10     5    23 1   
    11     5    24 1   
    12     6    25 1   
    13     6    26 1   
    14     6    27 1   
    15     7     8 2   
    16     7     9 1   
    17     9    10 1   
    18     9    28 1   
    19     9    29 1   
    20    10    11 1   
    21    10    30 1   
    22    10    31 1   
    23    11    12 1   
    24    11    32 1   
    25    12    13 1   
    26    12    33 1   
    27    13    34 1   
    28    13    35 1   
    29    13    36 1   
    30    14    15 1   
    31    14    37 1   
    32    14    38 1   
    33    15     1 1   
    34    16    14 1   
    35    16    39 1   
    36    17    16 1   
    37    17     7 1   
    38    18    16 1   
    39    18    40 1   
    40    18    41 1   
    41    18    42 1   
    42    11    43 1   
    43    12    44 1   
@<TRIPOS>SUBSTRUCTURE
     1 3PK         1 TEMP              0 ****  ****    0 ROOT
