@<TRIPOS>MOLECULE
3PK
   44    43     1     0     0
SMALL
bcc


@<TRIPOS>ATOM
      1 CA1         0.1910   -0.5260   -0.2080 c         1 3PK      0.634100
      2 OA1         1.3460   -0.9160   -0.3870 o         1 3PK     -0.543000
      3 CA2        -0.6260   -0.5310    1.0460 c3        1 3PK     -0.126400
      4 CA3         0.2250   -0.1850    2.2500 c3        1 3PK     -0.080400
      5 CA4        -0.5700   -0.3300    3.5300 c3        1 3PK     -0.079400
      6 CA5         0.2600    0.0330    4.7340 c3        1 3PK     -0.093100
      7 CB1        -2.2430   -1.1500   -4.9680 c         1 3PK      0.635100
      8 OB1        -2.0950   -0.3280   -5.8740 o         1 3PK     -0.546000
      9 CB2        -3.0440   -2.4160   -4.9680 c3        1 3PK     -0.127400
     10 CB3        -2.9390   -3.1250   -6.3010 c3        1 3PK     -0.079400
     11 CB4        -3.8590   -4.3260   -6.3440 c3        1 3PK     -0.079400
     12 CB5        -3.7460   -5.0520   -7.6680 c3        1 3PK     -0.080400
     13 CB6        -4.6630   -6.2460   -7.7220 c3        1 3PK     -0.093100
     14 CG1         0.1840   -0.0200   -2.5400 c3        1 3PK      0.135400
     15 OG1        -0.4960   -0.0160   -1.2770 os        1 3PK     -0.435900
     16 CG2        -0.8460    0.2780   -3.6280 c3        1 3PK      0.148100
     17 OG2        -1.6260   -0.9260   -3.7680 os        1 3PK     -0.439900
     18 CG3        -1.7490    1.4440   -3.2880 c3        1 3PK     -0.114100
     19 H1A2       -1.4790    0.1900    0.9450 hc        1 3PK      0.078700
     20 H2A2       -1.0600   -1.5620    1.1570 hc        1 3PK      0.078700
     21 H1A3        0.6010    0.8680    2.1550 hc        1 3PK      0.057700
     22 H2A3        1.1240   -0.8570    2.2780 hc        1 3PK      0.057700
     23 H1A4       -0.9340   -1.3870    3.6280 hc        1 3PK      0.040200
     24 H2A4       -1.4780    0.3300    3.4850 hc        1 3PK      0.040200
     25 H1A5        1.1590   -0.6260    4.8060 hc        1 3PK      0.035700
     26 H2A5        0.6080    1.0930    4.6690 hc        1 3PK      0.035700
     27 H3A5       -0.3400   -0.0840    5.6680 hc        1 3PK      0.035700
     28 H1B2       -2.6950   -3.0840   -4.1370 hc        1 3PK      0.078700
     29 H2B2       -4.1110   -2.1350   -4.7570 hc        1 3PK      0.078700
     30 H1B3       -1.8800   -3.4520   -6.4710 hc        1 3PK      0.057700
     31 H2B3       -3.2010   -2.4090   -7.1260 hc        1 3PK      0.057700
     32 HB4        -3.6030   -5.0280   -5.5080 hc        1 3PK      0.040700
     33 HB5        -3.9970   -4.3450   -8.5040 hc        1 3PK      0.041700
     34 H1B6       -5.7280   -5.9330   -7.5950 hc        1 3PK      0.033367
     35 H2B6       -4.5640   -6.7670   -8.7050 hc        1 3PK      0.033367
     36 H3B6       -4.4130   -6.9730   -6.9110 hc        1 3PK      0.033367
     37 H1G1        0.6650   -1.0190   -2.7060 h1        1 3PK      0.065200
     38 H2G1        0.9640    0.7850   -2.5220 h1        1 3PK      0.065200
     39 HG2        -0.2960    0.4730   -4.5930 h1        1 3PK      0.076700
     40 H1G3       -1.1310    2.3560   -3.1140 hc        1 3PK      0.053367
     41 H2G3       -2.4540    1.6320   -4.1330 hc        1 3PK      0.053367
     42 H3G3       -2.3360    1.2230   -2.3650 hc        1 3PK      0.053367
     43 H25        -4.9200   -3.9950   -6.1870 hc        1 3PK      0.040700
     44 H26        -2.6860   -5.3830   -7.8240 hc        1 3PK      0.041700
@<TRIPOS>BOND
     1    1    2 2   
     2    1    3 1   
     3    1   15 1   
     4    3    4 1   
     5    3   19 1   
     6    3   20 1   
     7    4    5 1   
     8    4   21 1   
     9    4   22 1   
    10    5    6 1   
    11    5   23 1   
    12    5   24 1   
    13    6   25 1   
    14    6   26 1   
    15    6   27 1   
    16    7    8 2   
    17    7    9 1   
    18    7   17 1   
    19    9   10 1   
    20    9   28 1   
    21    9   29 1   
    22   10   11 1   
    23   10   30 1   
    24   10   31 1   
    25   11   12 1   
    26   11   32 1   
    27   11   43 1   
    28   12   13 1   
    29   12   33 1   
    30   12   44 1   
    31   13   34 1   
    32   13   35 1   
    33   13   36 1   
    34   14   15 1   
    35   14   16 1   
    36   14   37 1   
    37   14   38 1   
    38   16   17 1   
    39   16   18 1   
    40   16   39 1   
    41   18   40 1   
    42   18   41 1   
    43   18   42 1   
@<TRIPOS>SUBSTRUCTURE
     1 3PK         1 TEMP              0 ****  ****    0 ROOT
