@<TRIPOS>MOLECULE
molecule
   20    20     1     0     0
SMALL
bcc


@<TRIPOS>ATOM
      1 C            0.0000     0.0000     0.0000 c          1 3PL       0.566900
      2 O            1.2070     0.0000     0.0000 o          1 3PL      -0.519100
      3 CA          -0.7530     0.0000     1.3050 c3         1 3PL      -0.200400
      4 CB          -1.6330     1.2480     1.3870 c3         1 3PL      -0.027100
      5 CG          -2.3870     1.2480     2.6910 ca         1 3PL      -0.086300
      6 CD1         -3.6320     0.6540     2.7710 ca         1 3PL      -0.123500
      7 CE1         -4.3210     0.6510     3.9680 ca         1 3PL      -0.125000
      8 CZ          -3.7700     1.2490     5.0850 ca         1 3PL      -0.128000
      9 CE2         -2.5260     1.8470     5.0050 ca         1 3PL      -0.125000
     10 CD2         -1.8350     1.8470     3.8080 ca         1 3PL      -0.123500
     11 H           -0.5410    -0.0420    -0.9370 h4         1 3PL      -0.006800
     12 HA1         -0.0490     0.0000     2.1280 hc         1 3PL       0.071700
     13 HA2         -1.3750    -0.8850     1.3630 hc         1 3PL       0.071700
     14 HB1         -2.3370     1.2480     0.5640 hc         1 3PL       0.051700
     15 HB2         -1.0110     2.1330     1.3300 hc         1 3PL       0.051700
     16 HD1         -4.0650     0.1850     1.8960 ha         1 3PL       0.130000
     17 HE1         -5.2960     0.1840     4.0300 ha         1 3PL       0.130500
     18 HZ          -4.3110     1.2480     6.0230 ha         1 3PL       0.130000
     19 HE2         -2.0930     2.3160     5.8800 ha         1 3PL       0.130500
     20 HD2         -0.8600     2.3160     3.7450 ha         1 3PL       0.130000
@<TRIPOS>BOND
     1     1     2 2   
     2     1     3 1   
     3     1    11 1   
     4     3     4 1   
     5     3    12 1   
     6     3    13 1   
     7     4     5 1   
     8     4    14 1   
     9     4    15 1   
    10     5     6 ar  
    11     5    10 ar  
    12     6     7 ar  
    13     6    16 1   
    14     7     8 ar  
    15     7    17 1   
    16     8     9 ar  
    17     8    18 1   
    18     9    10 ar  
    19     9    19 1   
    20    10    20 1   
@<TRIPOS>SUBSTRUCTURE
     1 3PL         1 TEMP              0 ****  ****    0 ROOT
