@<TRIPOS>MOLECULE
3PL
   20    20     1     0     0
SMALL
bcc


@<TRIPOS>ATOM
      1 C           0.1150    0.0740    0.0450 c         1 3PL      0.563900
      2 O           1.3000   -0.2450   -0.0570 o         1 3PL     -0.525100
      3 CA         -0.6080    0.1130    1.3550 c3        1 3PL     -0.201400
      4 CB         -1.7280    1.1340    1.3430 c3        1 3PL     -0.031100
      5 CG         -2.4440    1.1740    2.6470 ca        1 3PL     -0.084300
      6 CD1        -3.7360    0.6490    2.7660 ca        1 3PL     -0.125500
      7 CE1        -4.4050    0.6990    3.9890 ca        1 3PL     -0.126500
      8 CZ         -3.7900    1.2730    5.1010 ca        1 3PL     -0.129000
      9 CE2        -2.5030    1.7990    4.9880 ca        1 3PL     -0.126500
     10 CD2        -1.8330    1.7510    3.7670 ca        1 3PL     -0.125500
     11 H          -0.4930    0.3430   -0.8490 h4        1 3PL     -0.006800
     12 HA1         0.1120    0.3410    2.1860 hc        1 3PL      0.078700
     13 HA2        -1.0250   -0.9120    1.5510 hc        1 3PL      0.078700
     14 HB1        -1.3020    2.1510    1.1240 hc        1 3PL      0.050700
     15 HB2        -2.4490    0.8910    0.5160 hc        1 3PL      0.050700
     16 HD1        -4.2260    0.1960    1.8920 ha        1 3PL      0.132000
     17 HE1        -5.4200    0.2840    4.0740 ha        1 3PL      0.132500
     18 HZ         -4.3190    1.3120    6.0640 ha        1 3PL      0.133000
     19 HE2        -2.0160    2.2540    5.8630 ha        1 3PL      0.132500
     20 HD2        -0.8180    2.1680    3.6790 ha        1 3PL      0.132000
@<TRIPOS>BOND
     1    1    2 2   
     2    1    3 1   
     3    1   11 1   
     4    3    4 1   
     5    3   12 1   
     6    3   13 1   
     7    4    5 1   
     8    4   14 1   
     9    4   15 1   
    10    5    6 ar  
    11    5   10 ar  
    12    6    7 ar  
    13    6   16 1   
    14    7    8 ar  
    15    7   17 1   
    16    8    9 ar  
    17    8   18 1   
    18    9   10 ar  
    19    9   19 1   
    20   10   20 1   
@<TRIPOS>SUBSTRUCTURE
     1 3PL         1 TEMP              0 ****  ****    0 ROOT
