@<TRIPOS>MOLECULE
3PO
   13    12     1     0     0
SMALL
bcc


@<TRIPOS>ATOM
      1 PG          0.3950   -0.2650    2.9640 p5        1 3PO      1.496900
      2 O1G         1.8650    0.0840    3.1430 o         1 3PO     -1.009500
      3 O2G         0.1570   -1.7510    3.1820 o         1 3PO     -1.009500
      4 O3G        -0.4690    0.5600    3.9080 o         1 3PO     -1.009500
      5 PB         -0.7320    0.7220   -0.0040 p5        1 3PO      1.726800
      6 O1B        -0.4610    2.1990   -0.0270 o         1 3PO     -0.982500
      7 O2B        -2.1860    0.3480    0.0130 o         1 3PO     -0.982500
      8 O3B        -0.0560    0.1210    1.3610 os        1 3PO     -0.849800
      9 PA          0.3480   -0.3490   -2.9600 p5        1 3PO      1.496900
     10 O1A         1.8150   -0.0070   -3.1720 o         1 3PO     -1.009500
     11 O2A         0.1060   -1.8400   -3.1330 o         1 3PO     -1.009500
     12 O3A        -0.0770    0.0830   -1.3620 os        1 3PO     -0.849800
     13 O5'        -0.5300    0.4500   -3.9130 o         1 3PO     -1.009500
@<TRIPOS>BOND
     1    1    2 1   
     2    1    3 1   
     3    1    4 1   
     4    1    8 1   
     5    5    6 1   
     6    5    7 1   
     7    5    8 1   
     8    5   12 1   
     9    9   10 1   
    10    9   11 1   
    11    9   12 1   
    12    9   13 1   
@<TRIPOS>SUBSTRUCTURE
     1 3PO         1 TEMP              0 ****  ****    0 ROOT
