@<TRIPOS>MOLECULE
molecule
   13    12     1     0     0
SMALL
bcc


@<TRIPOS>ATOM
      1 PG           0.0630    -0.0750     2.5840 p5         1 3PO       1.239400
      2 O1G          1.0360     1.0380     2.5440 o          1 3PO      -0.957500
      3 O2G          0.2680    -0.9180     3.9400 o          1 3PO      -0.957500
      4 O3G         -1.4320     0.5160     2.5410 o          1 3PO      -0.957500
      5 PB           0.0770    -0.1340     0.0000 p5         1 3PO       1.260800
      6 O1B          1.0500     0.9810     0.0000 o          1 3PO      -0.798500
      7 O2B         -1.4180     0.4590     0.0000 o          1 3PO      -0.798500
      8 O3B          0.2970    -1.0370     1.3140 os         1 3PO      -0.698800
      9 PA           0.0630    -0.0750    -2.5840 p5         1 3PO       1.239400
     10 O1A          1.0360     1.0390    -2.5440 o          1 3PO      -0.957500
     11 O2A          0.2680    -0.9180    -3.9400 o          1 3PO      -0.957500
     12 O3A          0.2970    -1.0370    -1.3140 os         1 3PO      -0.698800
     13 O5'         -1.4320     0.5160    -2.5410 o          1 3PO      -0.957500
@<TRIPOS>BOND
     1     1     2 1   
     2     1     3 1   
     3     1     4 1   
     4     1     8 1   
     5     5     6 1   
     6     5     7 1   
     7     5     8 1   
     8     5    12 1   
     9     9    10 1   
    10     9    11 1   
    11     9    12 1   
    12     9    13 1   
@<TRIPOS>SUBSTRUCTURE
     1 3PO         1 TEMP              0 ****  ****    0 ROOT
