@<TRIPOS>MOLECULE
molecule
   13    12     1     0     0
SMALL
bcc


@<TRIPOS>ATOM
      1 CB           0.0000     0.0000     0.0000 c3         1 3PP      -0.247600
      2 CG           1.5300     0.0000     0.0000 c3         1 3PP      -0.135400
      3 P           -0.6080     0.0000     1.7170 p5         1 3PP       1.097700
      4 CD           2.0330    -0.0010    -1.4210 c          1 3PP       0.889600
      5 OE1          1.2480    -0.0010    -2.3400 o          1 3PP      -0.922300
      6 OE2          3.3520    -0.0000    -1.6660 o          1 3PP      -0.922300
      7 O1          -2.2180    -0.0010     1.7170 o          1 3PP      -0.951167
      8 O2          -0.1150     1.2090     2.4140 o          1 3PP      -0.951167
      9 O3          -0.0700    -1.3130     2.4770 o          1 3PP      -0.951167
     10 HCB1        -0.3610    -0.8840    -0.5110 hc         1 3PP       0.015700
     11 HCB2        -0.3610     0.8840    -0.5110 hc         1 3PP       0.015700
     12 HCG1         1.8910    -0.8840     0.5110 hc         1 3PP       0.032200
     13 HCG2         1.8910     0.8850     0.5100 hc         1 3PP       0.032200
@<TRIPOS>BOND
     1     1     2 1   
     2     1     3 1   
     3     1    10 1   
     4     1    11 1   
     5     2     4 1   
     6     2    12 1   
     7     2    13 1   
     8     3     7 1   
     9     3     8 1   
    10     3     9 1   
    11     4     5 1   
    12     4     6 1   
@<TRIPOS>SUBSTRUCTURE
     1 3PP         1 TEMP              0 ****  ****    0 ROOT
