@<TRIPOS>MOLECULE
3PP
   13    12     1     0     0
SMALL
bcc


@<TRIPOS>ATOM
      1 CB          0.0190   -0.3240    0.1000 c3        1 3PP     -0.259600
      2 CG          1.4000    0.2210   -0.0640 c3        1 3PP     -0.126400
      3 P          -0.5430   -0.0300    1.7550 p5        1 3PP      1.228700
      4 CD          2.0340    0.0910   -1.4460 c         1 3PP      0.892600
      5 OE1         1.6950    0.8600   -2.4080 o         1 3PP     -0.931300
      6 OE2         2.9720   -0.7570   -1.6470 o         1 3PP     -0.931300
      7 O1         -2.0220   -0.3990    1.6960 o         1 3PP     -0.982833
      8 O2         -0.3230    1.4400    2.0680 o         1 3PP     -0.982833
      9 O3          0.2470   -0.9640    2.6590 o         1 3PP     -0.982833
     10 HCB1       -0.6840    0.1590   -0.6140 hc        1 3PP      0.009200
     11 HCB2       -0.0030   -1.4190   -0.0960 hc        1 3PP      0.009200
     12 HCG1        2.0590   -0.2940    0.6840 hc        1 3PP      0.029200
     13 HCG2        1.3610    1.3100    0.2100 hc        1 3PP      0.029200
@<TRIPOS>BOND
     1    1    2 1   
     2    1    3 1   
     3    1   10 1   
     4    1   11 1   
     5    2    4 1   
     6    2   12 1   
     7    2   13 1   
     8    3    7 1   
     9    3    8 1   
    10    3    9 1   
    11    4    5 1   
    12    4    6 1   
@<TRIPOS>SUBSTRUCTURE
     1 3PP         1 TEMP              0 ****  ****    0 ROOT
