@<TRIPOS>MOLECULE
molecule
   35    36     1     0     0
SMALL
bcc


@<TRIPOS>ATOM
      1 C7           0.0000     0.0000     0.0000 c          1 3PQ       0.711500
      2 C6          -1.2140     1.2570     1.7940 c3         1 3PQ      -0.093100
      3 N1           1.3470     0.0000     0.0000 ns         1 3PQ      -0.582500
      4 C5          -0.4100    -0.0010     1.4590 c3         1 3PQ       0.012400
      5 C2           1.8410     0.0000     1.2440 c          1 3PQ       0.809500
      6 C16         -3.6100    -2.5480     7.7100 ca         1 3PQ      -0.180000
      7 C21         -4.6400    -4.6420     7.1430 ca         1 3PQ      -0.180000
      8 C17         -4.0580    -2.6830     9.0110 ca         1 3PQ      -0.082500
      9 C20         -5.0810    -4.7760     8.4450 ca         1 3PQ      -0.082500
     10 C13         -2.7140    -2.2200     5.1810 c3         1 3PQ       0.060400
     11 C9          -1.2170    -1.2580     1.7920 c3         1 3PQ       0.006000
     12 C15         -3.9030    -3.5270     6.7720 ca         1 3PQ       0.139100
     13 C18         -4.7930    -3.7960     9.3780 ca         1 3PQ      -0.006600
     14 C11         -2.3210    -2.2460     3.7270 c          1 3PQ       0.617100
     15 N4           0.8750    -0.0010     2.1800 ns         1 3PQ      -0.592900
     16 N10         -1.6000    -1.2330     3.2060 ns         1 3PQ      -0.520900
     17 O8          -0.7330     0.0040    -0.9660 o          1 3PQ      -0.567500
     18 O3           3.0290     0.0010     1.4990 o          1 3PQ      -0.641500
     19 O12         -2.6530    -3.1770     3.0250 o          1 3PQ      -0.546100
     20 O14         -3.4680    -3.3940     5.4910 os         1 3PQ      -0.293900
     21 Cl1         -5.3800    -3.9720    11.0030 cl         1 3PQ      -0.108400
     22 H1          -1.4980     1.2370     2.8390 hc         1 3PQ       0.055033
     23 H2          -0.6100     2.1350     1.6000 hc         1 3PQ       0.055033
     24 H3          -2.1060     1.2900     1.1790 hc         1 3PQ       0.055033
     25 H4           1.9330    -0.0130    -0.8110 hn         1 3PQ       0.367500
     26 H6          -4.8660    -5.4100     6.4130 ha         1 3PQ       0.145500
     27 H7          -3.8300    -1.9180     9.7430 ha         1 3PQ       0.148000
     28 H8          -5.6500    -5.6510     8.7360 ha         1 3PQ       0.148000
     29 H9          -1.8540    -2.4700     5.7910 h1         1 3PQ       0.060700
     30 H10         -3.0670    -1.2300     5.4420 h1         1 3PQ       0.060700
     31 H11         -0.5960    -1.9470     2.3520 h1         1 3PQ       0.121700
     32 H12         -1.5430    -1.7300     0.8730 h1         1 3PQ       0.121700
     33 H13          0.9930     0.0400     3.1730 hn         1 3PQ       0.371500
     34 H14         -1.8840    -0.3730     3.6310 hn         1 3PQ       0.265500
     35 H5          -3.0350    -1.6770     7.4230 ha         1 3PQ       0.145500
@<TRIPOS>BOND
     1    21    13 1
     2     9    13 ar
     3     9     7 ar
     4    13     8 ar
     5     7    12 ar
     6     8     6 ar
     7    12     6 ar
     8    12    20 1
     9    20    10 1
    10    17     1 2
    11    10    14 1
    12    16    11 1
    13    16    14 1
    14     1     3 1
    15     1     4 1
    16    11     4 1
    17    14    19 2
    18     3     5 1
    19     4     2 1
    20     4    15 1
    21     5    15 1
    22     5    18 2
    23     2    22 1
    24     2    23 1
    25     2    24 1
    26     3    25 1
    27     6    35 1
    28     7    26 1
    29     8    27 1
    30     9    28 1
    31    10    29 1
    32    10    30 1
    33    11    31 1
    34    11    32 1
    35    15    33 1
    36    16    34 1
@<TRIPOS>SUBSTRUCTURE
     1 3PQ         1 TEMP              0 ****  ****    0 ROOT
