@<TRIPOS>MOLECULE
3PQ
   35    36     1     0     0
SMALL
bcc


@<TRIPOS>ATOM
      1 C7           0.0000     0.0000     0.0000 c          1 3PQ       0.623500
      2 C6          -1.2140     1.2570     1.7940 c3         1 3PQ       0.004900
      3 N1           1.3470     0.0000     0.0000 ns         1 3PQ      -0.159500
      4 C5          -0.4100    -0.0010     1.4590 c3         1 3PQ      -0.105600
      5 C2           1.8410     0.0000     1.2440 c          1 3PQ       0.605500
      6 C16         -3.6100    -2.5480     7.7100 ca         1 3PQ      -0.164500
      7 C21         -4.6400    -4.6420     7.1430 ca         1 3PQ      -0.164500
      8 C17         -4.0580    -2.6830     9.0110 ca         1 3PQ      -0.054000
      9 C20         -5.0810    -4.7760     8.4450 ca         1 3PQ      -0.054000
     10 C13         -2.7140    -2.2200     5.1810 c3         1 3PQ       0.127400
     11 C9          -1.2170    -1.2580     1.7920 c3         1 3PQ      -0.038000
     12 C15         -3.9030    -3.5270     6.7720 ca         1 3PQ       0.145100
     13 C18         -4.7930    -3.7960     9.3780 ca         1 3PQ      -0.073600
     14 C11         -2.3210    -2.2460     3.7270 c          1 3PQ       0.555100
     15 N4           0.8750    -0.0010     2.1800 ns         1 3PQ      -0.207900
     16 N10         -1.6000    -1.2330     3.2060 ns         1 3PQ      -0.204900
     17 O8          -0.7330     0.0040    -0.9660 o          1 3PQ      -0.603500
     18 O3           3.0290     0.0010     1.4990 o          1 3PQ      -0.686500
     19 O12         -2.6530    -3.1770     3.0250 o          1 3PQ      -0.583100
     20 O14         -3.4680    -3.3940     5.4910 os         1 3PQ      -0.266900
     21 Cl1         -5.3800    -3.9720    11.0030 cl         1 3PQ      -0.026400
     22 H1          -1.4980     1.2370     2.8390 hc         1 3PQ       0.021033
     23 H2          -0.6100     2.1350     1.6000 hc         1 3PQ       0.021033
     24 H3          -2.1060     1.2900     1.1790 hc         1 3PQ       0.021033
     25 H4           1.9330    -0.0130    -0.8110 hn         1 3PQ       0.209500
     26 H6          -4.8660    -5.4100     6.4130 ha         1 3PQ       0.120000
     27 H7          -3.8300    -1.9180     9.7430 ha         1 3PQ       0.114500
     28 H8          -5.6500    -5.6510     8.7360 ha         1 3PQ       0.114500
     29 H9          -1.8540    -2.4700     5.7910 h1         1 3PQ       0.022200
     30 H10         -3.0670    -1.2300     5.4420 h1         1 3PQ       0.022200
     31 H11         -0.5960    -1.9470     2.3520 h1         1 3PQ       0.084700
     32 H12         -1.5430    -1.7300     0.8730 h1         1 3PQ       0.084700
     33 H13          0.9930     0.0400     3.1730 hn         1 3PQ       0.223500
     34 H14         -1.8840    -0.3730     3.6310 hn         1 3PQ       0.151500
     35 H5          -3.0350    -1.6770     7.4230 ha         1 3PQ       0.120000
@<TRIPOS>BOND
     1     1     3 1   
     2     1     4 1   
     3     1    17 2   
     4     2     4 1   
     5     2    22 1   
     6     2    23 1   
     7     2    24 1   
     8     3     5 1   
     9     3    25 1   
    10     4    11 1   
    11     4    15 1   
    12     5    15 1   
    13     5    18 2   
    14     6     8 ar  
    15     6    12 ar  
    16     6    35 1   
    17     7     9 ar  
    18     7    12 ar  
    19     7    26 1   
    20     8    13 ar  
    21     8    27 1   
    22     9    13 ar  
    23     9    28 1   
    24    10    14 1   
    25    10    20 1   
    26    10    29 1   
    27    10    30 1   
    28    11    16 1   
    29    11    31 1   
    30    11    32 1   
    31    12    20 1   
    32    13    21 1   
    33    14    16 1   
    34    14    19 2   
    35    15    33 1   
    36    16    34 1   
@<TRIPOS>SUBSTRUCTURE
     1 3PQ         1 TEMP              0 ****  ****    0 ROOT
