@<TRIPOS>MOLECULE
molecule
   38    40     1     0     0
SMALL
bcc


@<TRIPOS>ATOM
      1 C1           0.0000     0.0000     0.0000 c3         1 3PS      -0.124400
      2 N2           2.4340     0.0000     0.0000 nb         1 3PS      -0.767000
      3 C3           3.6300     0.0000     0.5730 ca         1 3PS       0.747200
      4 N4           4.7800     0.0020    -0.1880 nv         1 3PS      -1.082500
      5 C5           3.6950    -0.0010     1.9890 ca         1 3PS      -0.312600
      6 C6           2.4770    -0.0030     2.7110 ca         1 3PS       0.491600
      7 C7           2.5150    -0.0030     4.1250 ca         1 3PS      -0.199900
      8 N8           1.3250    -0.0020     2.0330 nb         1 3PS      -0.699000
      9 C9           1.3240    -0.0010     0.7190 ca         1 3PS       0.708300
     10 C10          4.9270    -0.0020     4.0420 ca         1 3PS      -0.160000
     11 C11          3.7460    -0.0030     4.7690 ca         1 3PS      -0.069000
     12 C12          4.9130    -0.0010     2.6760 ca         1 3PS      -0.050000
     13 O14          0.1900    -0.0040     4.3310 o          1 3PS      -0.551100
     14 N15          1.3090    -0.0050     6.2510 ns         1 3PS      -0.475100
     15 C16          0.1240     0.0940     6.9910 ca         1 3PS      -0.103700
     16 C17          0.1010     0.7900     8.1900 ca         1 3PS       0.422200
     17 N18         -1.0110     0.8880     8.8920 nb         1 3PS      -0.756000
     18 C19         -2.1400     0.3310     8.4870 ca         1 3PS       0.637600
     19 C20         -2.1930    -0.3840     7.2970 ca         1 3PS      -0.251300
     20 C21         -1.0480    -0.5030     6.5300 ca         1 3PS      -0.062000
     21 O22         -3.2600     0.4570     9.2430 os         1 3PS      -0.443100
     22 C23         -3.1420     1.2030    10.4570 c3         1 3PS       0.137700
     23 H1          -0.5870     0.8500     0.3260 hc         1 3PS       0.062700
     24 H1A          0.1690     0.0660    -1.0680 hc         1 3PS       0.062700
     25 H1B         -0.5340    -0.9160     0.2250 hc         1 3PS       0.062700
     26 HN4          5.1660    -0.8620    -0.5130 hn         1 3PS       0.444800
     27 HN4A         5.2060     0.8690    -0.4480 hn         1 3PS       0.444800
     28 H10          5.8750    -0.0020     4.5650 ha         1 3PS       0.137000
     29 H11          3.7830    -0.0040     5.8520 ha         1 3PS       0.128000
     30 H12          5.8460    -0.0000     2.1250 ha         1 3PS       0.144000
     31 HN15         2.1930     0.0340     6.7190 hn         1 3PS       0.319500
     32 H17          1.0070     1.2600     8.5540 h4         1 3PS       0.018100
     33 H20         -3.1210    -0.8360     6.9700 ha         1 3PS       0.154000
     34 H21         -1.0600    -1.0540     5.5980 ha         1 3PS       0.179000
     35 H23         -2.8260     2.2140    10.2310 h1         1 3PS       0.044700
     36 H23A        -4.1010     1.2290    10.9600 h1         1 3PS       0.044700
     37 H23B        -2.4100     0.7310    11.1020 h1         1 3PS       0.044700
     38 C13          1.2640    -0.0040     4.9030 c          1 3PS       0.669700
@<TRIPOS>BOND
     1     1     9 1   
     2     1    23 1   
     3     1    24 1   
     4     1    25 1   
     5     2     9 ar  
     6     2     3 ar  
     7     4     3 1   
     8     3     5 ar  
     9     4    26 1   
    10     4    27 1   
    11     5     6 ar  
    12     5    12 ar  
    13     8     6 ar  
    14     6     7 ar  
    15     7    38 1   
    16     7    11 ar  
    17     9     8 ar  
    18    12    10 ar  
    19    10    11 ar  
    20    10    28 1   
    21    11    29 1   
    22    12    30 1   
    23    14    38 1   
    24    38    13 2   
    25    14    15 1   
    26    14    31 1   
    27    16    15 ar  
    28    15    20 ar  
    29    16    17 ar  
    30    16    32 1   
    31    17    18 ar  
    32    18    21 1   
    33    18    19 ar  
    34    20    19 ar  
    35    19    33 1   
    36    20    34 1   
    37    22    21 1   
    38    22    35 1   
    39    22    36 1   
    40    22    37 1   
@<TRIPOS>SUBSTRUCTURE
     1 3PS         1 TEMP              0 ****  ****    0 ROOT
