@<TRIPOS>MOLECULE
3PU
   38    39     1     0     0
SMALL
bcc


@<TRIPOS>ATOM
      1 C7          1.4060    0.0120   -0.4510 c2        1 3PU     -0.593000
      2 C6          3.4940    1.6990   -3.7940 c2        1 3PU      0.065000
      3 C1          6.0820    0.3940   -7.1590 c1        1 3PU     -0.206000
      4 C5          4.7520    2.9800   -5.5220 c1        1 3PU     -0.027000
      5 C4         -0.2190    0.4010    3.7670 c3        1 3PU     -0.415000
      6 C3         -1.5610    0.3030    3.1310 c1        1 3PU      0.007000
      7 C2          4.8390   -0.1810   -6.7560 c3        1 3PU     -0.004000
      8 C8          7.1310    0.8350   -7.5310 c1        1 3PU     -0.122000
      9 C9          4.2840    0.4470   -5.5330 c2        1 3PU      0.152000
     10 C10         4.2420    1.7710   -5.0360 c2        1 3PU     -0.252000
     11 C11         3.1280    0.3760   -3.6100 c2        1 3PU     -0.179000
     12 C12        -0.2410    0.2940    1.3030 c2        1 3PU     -0.169000
     13 C13        -0.8480   -0.9990   -0.7050 c2        1 3PU      0.303000
     14 C14        -2.9550    0.1800   -0.3940 c1        1 3PU      0.525000
     15 C15         2.3930   -0.2990   -2.5710 c2        1 3PU      0.289000
     16 C16        -0.0060    0.2670   -0.2090 c3        1 3PU      0.220000
     17 N17        -1.5120    0.2520    1.7920 n2        1 3PU     -0.322000
     18 N18        -2.3110   -0.8980   -0.7410 n         1 3PU     -0.282000
     19 N19        -0.6170    1.4240   -0.8590 n3        1 3PU     -0.367000
     20 N20         2.1850   -1.6180   -2.5480 n3        1 3PU     -0.295000
     21 O21        -0.4120   -2.0780   -1.0800 o         1 3PU     -0.259000
     22 O22        -3.5470    1.1590   -0.1490 o         1 3PU      0.052000
     23 O23         2.0060    0.5420   -1.5500 os        1 3PU     -0.030000
     24 O24         3.6140   -0.4130   -4.6890 os        1 3PU     -0.107000
     25 S25         0.9950    0.4090    2.4070 ss        1 3PU      0.436000
     26 H1          1.6570   -2.0280   -1.8010 hn        1 3PU      0.276500
     27 H2          2.0120   -0.6210    0.1940 h4        1 3PU      0.167000
     28 H3          3.2810    2.5500   -3.1420 ha        1 3PU      0.207000
     29 H4          4.9690   -1.2910   -6.5880 hc        1 3PU      0.147500
     30 H5          5.3450    2.9610   -6.4470 ha        1 3PU      0.074000
     31 H6         -0.0370   -0.4680    4.4470 h1        1 3PU      0.193000
     32 H7         -0.1340    1.3440    4.3640 h1        1 3PU      0.193000
     33 H8          4.0720   -0.0560   -7.5810 hc        1 3PU      0.147500
     34 H9         -2.8500   -1.7310   -0.9390 hn        1 3PU      0.303000
     35 H10        -0.5710    2.2300   -0.2650 hn        1 3PU      0.188000
     36 H11        -0.1420    1.6230   -1.7200 hn        1 3PU      0.188000
     37 H202        2.5560   -2.2080   -3.2590 hn        1 3PU      0.276500
     38 CL2         8.5220    1.4250   -8.0240 cl        1 3PU      0.214000
@<TRIPOS>BOND
     1    1   16 1   
     2    1   23 1   
     3    1   27 1   
     4    2   10 1   
     5    2   11 1   
     6    2   28 1   
     7    3    7 1   
     8    3    8 1   
     9    4   10 1   
    10    4   30 1   
    11    5    6 1   
    12    5   25 1   
    13    5   31 1   
    14    5   32 1   
    15    6   17 1   
    16    7    9 1   
    17    7   29 1   
    18    7   33 1   
    19    8   38 1   
    20    9   10 1   
    21    9   24 1   
    22   11   15 1   
    23   11   24 1   
    24   12   16 1   
    25   12   17 1   
    26   12   25 1   
    27   13   16 1   
    28   13   18 1   
    29   13   21 1   
    30   14   18 1   
    31   14   22 1   
    32   15   20 1   
    33   15   23 1   
    34   16   19 1   
    35   18   34 1   
    36   19   35 1   
    37   19   36 1   
    38   20   26 1   
    39   20   37 1   
@<TRIPOS>SUBSTRUCTURE
     1 3PU         1 TEMP              0 ****  ****    0 ROOT
