@<TRIPOS>MOLECULE
3PW
   42    44     1     0     0
SMALL
bcc


@<TRIPOS>ATOM
      1 C4         -0.4240   -2.1320    1.8950 c2        1 3PW     -0.331000
      2 C5          0.9470   -2.3480    1.7320 c1        1 3PW     -0.089000
      3 C6         -3.6630   -0.0590   10.3740 c1        1 3PW      0.055000
      4 C7         -3.1700    1.5050    8.3770 c2        1 3PW      0.116000
      5 C8         -0.6520    1.0480    4.6940 c3        1 3PW     -0.106000
      6 C10        -1.6210   -0.0750    8.9400 c2        1 3PW      0.119000
      7 C13         0.4280   -0.4570    3.0700 c2        1 3PW     -0.265000
      8 C15         2.6310    2.0070    3.7220 c2        1 3PW      0.352000
      9 C17         0.6750    0.7100    3.9690 c3        1 3PW      0.083000
     10 C2         -1.7250   -1.7230   10.7560 c1        1 3PW      0.016000
     11 C3         -0.9550   -1.1910    9.6360 c3        1 3PW     -0.207000
     12 C9         -3.0220   -1.1530   11.1420 c3        1 3PW     -0.223000
     13 C11        -2.8840    0.4480    9.3070 c2        1 3PW     -0.274000
     14 C12        -2.0820    1.5670    7.5040 c2        1 3PW     -0.243000
     15 C14         1.7640    0.3200    5.0540 c2        1 3PW      0.304000
     16 C16        -1.8200    2.4240    6.3910 c2        1 3PW      0.350000
     17 N18        -0.7080   -1.0080    2.6890 n2        1 3PW      0.027000
     18 N19         2.8560    1.1670    4.8540 n         1 3PW     -0.363000
     19 N20         1.2590    1.8830    3.3030 n         1 3PW     -0.355000
     20 N21        -0.5150    2.1890    5.6420 n4        1 3PW     -0.100000
     21 N22         1.6160   -1.2350    2.4790 n4        1 3PW     -0.092000
     22 O23         1.5760   -0.4690    5.9810 o         1 3PW     -0.284000
     23 O25        -2.5080    3.3400    5.9580 o         1 3PW     -0.179000
     24 O26        -1.1100    0.5780    7.8510 os        1 3PW     -0.093000
     25 H1         -1.2500   -2.7230    1.4880 h4        1 3PW      0.212000
     26 H2          2.1060   -0.6410    1.7880 hn        1 3PW      0.293000
     27 H3         -2.9070   -0.7750   12.2110 h1        1 3PW      0.222000
     28 H4         -4.0700    2.1290    8.3670 ha        1 3PW      0.220000
     29 H5         -0.9670    0.1370    5.2860 hx        1 3PW      0.178500
     30 H6         -1.4520    1.3110    3.9420 hx        1 3PW      0.178500
     31 H7          3.4000    1.6300    0.8430 ha        1 3PW      0.001500
     32 H8          2.7220   -2.6600    3.6170 hx        1 3PW      0.119000
     33 H9          2.9670    1.1800    1.1090 ha        1 3PW      0.001500
     34 H10         0.0620   -0.8790   10.0270 hc        1 3PW      0.200500
     35 H11        -0.7500   -2.0470    8.9210 hc        1 3PW      0.200500
     36 H12         3.7640    1.0190    5.2320 hn        1 3PW      0.296000
     37 H13         1.0900    1.9900    2.3240 hn        1 3PW      0.256000
     38 H14         0.2300    1.9840    6.3180 hn        1 3PW      0.265000
     39 C1          2.5240   -1.5690    3.5160 c1        1 3PW      0.089000
     40 H212       -0.2750    3.0470    5.1220 hn        1 3PW      0.265000
     41 O24         3.4600    2.7720    3.2240 o         1 3PW     -0.252000
     42 CL2        -4.1680   -2.4870   11.2410 cl        1 3PW      0.036000
@<TRIPOS>BOND
     1    1    2 1
     2    1   17 1
     3    1   25 1
     4    2   21 1
     5    3   12 1
     6    3   13 1
     7    4   13 1
     8    4   14 1
     9    4   28 1
    10    5    9 1
    11    5   20 1
    12    5   29 1
    13    5   30 1
    14    6   11 1
    15    6   13 1
    16    6   24 1
    17    7    9 1
    18    7   17 1
    19    7   21 1
    20    8   18 1
    21    8   19 1
    22    8   41 1
    23    9   15 1
    24    9   19 1
    25   10   11 1
    26   10   12 1
    27   11   34 1
    28   11   35 1
    29   12   27 1
    30   12   42 1
    31   14   16 1
    32   14   24 1
    33   15   18 1
    34   15   22 1
    35   16   20 1
    36   16   23 1
    37   18   36 1
    38   19   37 1
    39   20   38 1
    40   20   40 1
    41   21   26 1
    42   21   39 1
    43   31   33 1
    44   32   39 1
@<TRIPOS>SUBSTRUCTURE
     1 3PW         1 TEMP              0 ****  ****    0 ROOT
