@<TRIPOS>MOLECULE
3PY
   10     9     1     0     0
SMALL
bcc


@<TRIPOS>ATOM
      1 C1          0.0510    0.1410   -0.0350 c         1 3PY      0.852600
      2 O1          0.8340    1.0820    0.2630 o         1 3PY     -0.812800
      3 O2         -0.0570   -0.9530    0.5780 o         1 3PY     -0.812800
      4 C2         -0.8100    0.3230   -1.2980 c         1 3PY      0.467100
      5 O3         -1.9400    0.8100   -1.3280 o         1 3PY     -0.559100
      6 C3         -0.0920   -0.1780   -2.5340 c3        1 3PY      0.004400
      7 O4         -0.8900   -0.0080   -3.6940 oh        1 3PY     -0.590800
      8 H31         0.8680    0.3970   -2.6370 h1        1 3PY      0.041200
      9 H32         0.1430   -1.2670   -2.3830 h1        1 3PY      0.041200
     10 HO4        -0.3650   -0.3470   -4.4280 ho        1 3PY      0.369000
@<TRIPOS>BOND
     1    1    2 1   
     2    1    3 1   
     3    1    4 1   
     4    4    5 2   
     5    4    6 1   
     6    6    7 1   
     7    6    8 1   
     8    6    9 1   
     9    7   10 1   
@<TRIPOS>SUBSTRUCTURE
     1 3PY         1 TEMP              0 ****  ****    0 ROOT
