@<TRIPOS>MOLECULE
molecule
   10     9     1     0     0
SMALL
bcc


@<TRIPOS>ATOM
      1 C1           0.0000     0.0000     0.0000 c          1 3PY       0.810600
      2 O1           1.2120     0.0000     0.0000 o          1 3PY      -0.813800
      3 O2          -0.6730     0.0000     1.1650 o          1 3PY      -0.813800
      4 C2          -0.7440     0.0000    -1.2900 c          1 3PY       0.468100
      5 O3          -1.9530     0.0000    -1.2900 o          1 3PY      -0.518100
      6 C3           0.0080     0.0000    -2.5950 c3         1 3PY       0.025400
      7 O4          -0.9210     0.0000    -3.6810 oh         1 3PY      -0.604800
      8 H31          0.6310    -0.8840    -2.6530 h1         1 3PY       0.036700
      9 H32          0.6310     0.8840    -2.6530 h1         1 3PY       0.036700
     10 HO4         -0.4500     0.0000    -4.4980 ho         1 3PY       0.372000
@<TRIPOS>BOND
     1     1     2 1
     2     1     3 1
     3     1     4 1
     4     4     5 2
     5     4     6 1
     6     6     7 1
     7     6     8 1
     8     6     9 1
     9     7    10 1
@<TRIPOS>SUBSTRUCTURE
     1 3PY         1 TEMP              0 ****  ****    0 ROOT
