@<TRIPOS>MOLECULE
3PZ
   67    71     1     0     0
SMALL
bcc


@<TRIPOS>ATOM
      1 C1           0.0000     0.0000     0.0000 ca         1 3PZ       0.041600
      2 N1           1.6350    -0.9540    -2.2190 n3         1 3PZ      -0.533500
      3 O1           1.9550    -2.9960    -3.5680 o          1 3PZ      -0.581300
      4 S1           2.2510    -2.4910    -2.2740 sy         1 3PZ       1.062200
      5 C2           1.3840     0.0000     0.0000 ca         1 3PZ      -0.201300
      6 N2          -0.8280    -0.0950    -1.1210 nh         1 3PZ      -0.334000
      7 O2           3.5710    -2.4120    -1.7540 o          1 3PZ      -0.581300
      8 C3           2.0900     0.0000     1.1870 ca         1 3PZ      -0.041000
      9 N3          -4.4660    -0.5730    -3.4750 nc         1 3PZ      -0.591000
     10 C4           1.4160     0.0340     2.4100 ca         1 3PZ       0.004000
     11 N4          -3.1860     1.1200    -3.0840 na         1 3PZ       0.323100
     12 C5           0.0180     0.0690     2.4170 ca         1 3PZ      -0.021000
     13 N5           2.7220     0.0120     4.6200 n1         1 3PZ      -0.385800
     14 C6          -0.6730     0.0520     1.2330 ca         1 3PZ      -0.184000
     15 C7           2.1610     0.0460    -1.2870 c3         1 3PZ       0.256100
     16 C8           0.5520    -0.5440    -3.0950 c3         1 3PZ       0.177500
     17 C9          -0.2880     0.5070    -2.3410 c3         1 3PZ      -0.017200
     18 C10         -2.1720     0.4210    -0.8290 c3         1 3PZ       0.160100
     19 C11         -3.0510     0.2460    -2.0400 cd         1 3PZ      -0.487900
     20 C12         -3.8570    -0.8020    -2.3030 cc         1 3PZ       0.335200
     21 C13         -4.0700     0.5760    -3.9490 cd         1 3PZ       0.197400
     22 C15          1.1240     0.0690    -4.3750 c3         1 3PZ       0.021900
     23 C16          3.2550    -2.9200    -6.5570 ca         1 3PZ      -0.135000
     24 C17          1.9060    -2.7240    -6.7900 ca         1 3PZ      -0.074000
     25 C18          1.2170    -1.7560    -6.0840 ca         1 3PZ      -0.105500
     26 C19          1.8750    -0.9850    -5.1450 ca         1 3PZ      -0.046300
     27 C20          3.2240    -1.1810    -4.9120 ca         1 3PZ      -0.105500
     28 C21          3.9130    -2.1530    -5.6150 ca         1 3PZ      -0.074000
     29 C22         -0.1300    -4.9930     0.6550 ca         1 3PZ       0.254100
     30 C23         -0.5420    -4.8890    -0.6660 ca         1 3PZ      -0.201500
     31 C24          0.1870    -4.1260    -1.5570 ca         1 3PZ       0.016000
     32 C25          1.3250    -3.4640    -1.1340 ca         1 3PZ      -0.236500
     33 C26          1.7370    -3.5660     0.1810 ca         1 3PZ       0.016000
     34 C27          1.0100    -4.3240     1.0780 ca         1 3PZ      -0.201500
     35 C28         -0.5280    -5.7330     2.8230 c3         1 3PZ       0.219700
     36 C29          2.1470     0.0320     3.6400 cg         1 3PZ       0.236800
     37 H3           3.1010    -0.2140     0.8620 ha         1 3PZ       0.134000
     38 H5          -0.3900    -0.0780     3.4100 ha         1 3PZ       0.113000
     39 H6          -1.7200    -0.1330     1.0240 ha         1 3PZ       0.139000
     40 H7           3.1470    -0.4030    -1.2700 h1         1 3PZ       0.066700
     41 H7A          1.9390     1.0860    -1.4910 h1         1 3PZ       0.066700
     42 H8          -0.0660    -1.4000    -3.3370 h1         1 3PZ       0.047700
     43 H9          -1.1830     0.7210    -2.9110 h1         1 3PZ       0.100200
     44 H9A          0.6060     0.9220    -1.8910 h1         1 3PZ       0.100200
     45 H10         -2.4970    -0.5820    -0.5810 h1         1 3PZ       0.063200
     46 H10A        -2.5210     1.1720    -0.1300 h1         1 3PZ       0.063200
     47 H12         -3.4890    -1.4770    -1.5400 h4         1 3PZ       0.025100
     48 H13         -4.7880     0.9440    -4.6730 h5         1 3PZ       0.046100
     49 H14         -1.8720     2.3030    -4.1100 h1         1 3PZ       0.033367
     50 H14A        -3.2620     2.8520    -3.8650 h1         1 3PZ       0.033367
     51 H14B        -2.1120     3.0260    -2.4350 h1         1 3PZ       0.033367
     52 H15          0.1620     0.3180    -4.8060 hc         1 3PZ       0.016700
     53 H15A         1.6270     1.0050    -4.1600 hc         1 3PZ       0.016700
     54 H16          3.4590    -3.9080    -6.9530 ha         1 3PZ       0.108000
     55 H17          1.3280    -3.4570    -7.3400 ha         1 3PZ       0.099500
     56 H18          0.1560    -1.7620    -5.8660 ha         1 3PZ       0.106000
     57 H20          3.9940    -0.4760    -4.6250 ha         1 3PZ       0.106000
     58 H21          4.9690    -2.3550    -5.7490 ha         1 3PZ       0.099500
     59 H23         -1.3920    -5.1530    -1.2840 ha         1 3PZ       0.136500
     60 H24         -0.1270    -3.7610    -2.5280 ha         1 3PZ       0.129500
     61 H26          2.7700    -3.2390     0.1780 ha         1 3PZ       0.129500
     62 H27          1.6620    -4.4270     1.9370 ha         1 3PZ       0.136500
     63 H28         -0.1190    -4.8150     3.2280 h1         1 3PZ       0.002367
     64 H28A        -1.1160    -6.1890     3.6100 h1         1 3PZ       0.002367
     65 H28B         0.3910    -6.2040     2.4960 h1         1 3PZ       0.002367
     66 C14         -2.5020     2.4060    -3.2340 c3         1 3PZ      -0.043400
     67 O3          -0.8440    -5.7440     1.5330 os         1 3PZ      -0.295900
@<TRIPOS>BOND
     1     1     5 ar  
     2     1     6 1   
     3     1    14 ar  
     4     2     4 1   
     5     2    15 1   
     6     2    16 1   
     7     3     4 2   
     8     4     7 2   
     9     4    32 1   
    10     5     8 ar  
    11     5    15 1   
    12     6    17 1   
    13     6    18 1   
    14     8    10 ar  
    15     8    37 1   
    16     9    20 1   
    17     9    21 2   
    18    10    12 ar  
    19    10    36 1   
    20    11    19 1   
    21    11    21 1   
    22    11    66 1   
    23    12    14 ar  
    24    12    38 1   
    25    13    36 3   
    26    14    39 1   
    27    15    40 1   
    28    15    41 1   
    29    16    17 1   
    30    16    22 1   
    31    16    42 1   
    32    17    43 1   
    33    17    44 1   
    34    18    19 1   
    35    18    45 1   
    36    18    46 1   
    37    19    20 2   
    38    20    47 1   
    39    21    48 1   
    40    22    26 1   
    41    22    52 1   
    42    22    53 1   
    43    23    24 ar  
    44    23    28 ar  
    45    23    54 1   
    46    24    25 ar  
    47    24    55 1   
    48    25    26 ar  
    49    25    56 1   
    50    26    27 ar  
    51    27    28 ar  
    52    27    57 1   
    53    28    58 1   
    54    29    30 ar  
    55    29    34 ar  
    56    29    67 1   
    57    30    31 ar  
    58    30    59 1   
    59    31    32 ar  
    60    31    60 1   
    61    32    33 ar  
    62    33    34 ar  
    63    33    61 1   
    64    34    62 1   
    65    35    63 1   
    66    35    64 1   
    67    35    65 1   
    68    35    67 1   
    69    49    66 1   
    70    50    66 1   
    71    51    66 1   
@<TRIPOS>SUBSTRUCTURE
     1 3PZ         1 TEMP              0 ****  ****    0 ROOT
