@<TRIPOS>MOLECULE
molecule
   67    71     1     0     0
SMALL
bcc


@<TRIPOS>ATOM
      1 C1           0.0000     0.0000     0.0000 ca         1 3PZ       0.131600
      2 N1           1.6350    -0.9540    -2.2190 n3         1 3PZ      -0.814500
      3 O1           1.9550    -2.9960    -3.5680 o          1 3PZ      -0.634800
      4 S1           2.2510    -2.4910    -2.2740 sy         1 3PZ       1.438200
      5 C2           1.3840     0.0000     0.0000 ca         1 3PZ      -0.197300
      6 N2          -0.8280    -0.0950    -1.1210 nh         1 3PZ      -0.581000
      7 O2           3.5710    -2.4120    -1.7540 o          1 3PZ      -0.634800
      8 C3           2.0900     0.0000     1.1870 ca         1 3PZ      -0.060000
      9 N3          -4.4660    -0.5730    -3.4750 nc         1 3PZ      -0.675000
     10 C4           1.4160     0.0340     2.4100 ca         1 3PZ      -0.042000
     11 N4          -3.1860     1.1200    -3.0840 na         1 3PZ      -0.176900
     12 C5           0.0180     0.0690     2.4170 ca         1 3PZ      -0.048000
     13 N5           2.7220     0.0120     4.6200 n1         1 3PZ      -0.366800
     14 C6          -0.6730     0.0520     1.2330 ca         1 3PZ      -0.191000
     15 C7           2.1610     0.0460    -1.2870 c3         1 3PZ       0.267100
     16 C8           0.5520    -0.5440    -3.0950 c3         1 3PZ       0.209500
     17 C9          -0.2880     0.5070    -2.3410 c3         1 3PZ       0.079800
     18 C10         -2.1720     0.4210    -0.8290 c3         1 3PZ       0.179100
     19 C11         -3.0510     0.2460    -2.0400 cd         1 3PZ      -0.293900
     20 C12         -3.8570    -0.8020    -2.3030 cc         1 3PZ       0.328200
     21 C13         -4.0700     0.5760    -3.9490 cd         1 3PZ       0.386400
     22 C15          1.1240     0.0690    -4.3750 c3         1 3PZ      -0.041100
     23 C16          3.2550    -2.9200    -6.5570 ca         1 3PZ      -0.151000
     24 C17          1.9060    -2.7240    -6.7900 ca         1 3PZ      -0.104500
     25 C18          1.2170    -1.7560    -6.0840 ca         1 3PZ      -0.133500
     26 C19          1.8750    -0.9850    -5.1450 ca         1 3PZ      -0.046300
     27 C20          3.2240    -1.1810    -4.9120 ca         1 3PZ      -0.133500
     28 C21          3.9130    -2.1530    -5.6150 ca         1 3PZ      -0.104500
     29 C22         -0.1300    -4.9930     0.6550 ca         1 3PZ       0.244100
     30 C23         -0.5420    -4.8890    -0.6660 ca         1 3PZ      -0.209500
     31 C24          0.1870    -4.1260    -1.5570 ca         1 3PZ      -0.008500
     32 C25          1.3250    -3.4640    -1.1340 ca         1 3PZ      -0.386500
     33 C26          1.7370    -3.5660     0.1810 ca         1 3PZ      -0.008500
     34 C27          1.0100    -4.3240     1.0780 ca         1 3PZ      -0.209500
     35 C28         -0.5280    -5.7330     2.8230 c3         1 3PZ       0.120700
     36 C29          2.1470     0.0320     3.6400 cg         1 3PZ       0.243800
     37 H3           3.1010    -0.2140     0.8620 ha         1 3PZ       0.158000
     38 H5          -0.3900    -0.0780     3.4100 ha         1 3PZ       0.146000
     39 H6          -1.7200    -0.1330     1.0240 ha         1 3PZ       0.153000
     40 H7           3.1470    -0.4030    -1.2700 h1         1 3PZ       0.093200
     41 H7A          1.9390     1.0860    -1.4910 h1         1 3PZ       0.093200
     42 H8          -0.0660    -1.4000    -3.3370 h1         1 3PZ       0.073700
     43 H9          -1.1830     0.7210    -2.9110 h1         1 3PZ       0.108700
     44 H9A          0.6060     0.9220    -1.8910 h1         1 3PZ       0.108700
     45 H10         -2.4970    -0.5820    -0.5810 h1         1 3PZ       0.086700
     46 H10A        -2.5210     1.1720    -0.1300 h1         1 3PZ       0.086700
     47 H12         -3.4890    -1.4770    -1.5400 h4         1 3PZ       0.060100
     48 H13         -4.7880     0.9440    -4.6730 h5         1 3PZ       0.086100
     49 H14         -1.8720     2.3030    -4.1100 h1         1 3PZ       0.062033
     50 H14A        -3.2620     2.8520    -3.8650 h1         1 3PZ       0.062033
     51 H14B        -2.1120     3.0260    -2.4350 h1         1 3PZ       0.062033
     52 H15          0.1620     0.3180    -4.8060 hc         1 3PZ       0.048200
     53 H15A         1.6270     1.0050    -4.1600 hc         1 3PZ       0.048200
     54 H16          3.4590    -3.9080    -6.9530 ha         1 3PZ       0.133000
     55 H17          1.3280    -3.4570    -7.3400 ha         1 3PZ       0.129500
     56 H18          0.1560    -1.7620    -5.8660 ha         1 3PZ       0.131500
     57 H20          3.9940    -0.4760    -4.6250 ha         1 3PZ       0.131500
     58 H21          4.9690    -2.3550    -5.7490 ha         1 3PZ       0.129500
     59 H23         -1.3920    -5.1530    -1.2840 ha         1 3PZ       0.158500
     60 H24         -0.1270    -3.7610    -2.5280 ha         1 3PZ       0.153000
     61 H26          2.7700    -3.2390     0.1780 ha         1 3PZ       0.153000
     62 H27          1.6620    -4.4270     1.9370 ha         1 3PZ       0.158500
     63 H28         -0.1190    -4.8150     3.2280 h1         1 3PZ       0.041033
     64 H28A        -1.1160    -6.1890     3.6100 h1         1 3PZ       0.041033
     65 H28B         0.3910    -6.2040     2.4960 h1         1 3PZ       0.041033
     66 C14         -2.5020     2.4060    -3.2340 c3         1 3PZ       0.005600
     67 O3          -0.8440    -5.7440     1.5330 os         1 3PZ      -0.321900
@<TRIPOS>BOND
     1     6     1 1
     2     1     5 ar
     3     1    14 ar
     4    16     2 1
     5    15     2 1
     6     2     4 1
     7     4     3 2
     8     7     4 2
     9     4    32 1
    10    15     5 1
    11     5     8 ar
    12    17     6 1
    13     6    18 1
    14     8    10 ar
    15     8    37 1
    16     9    21 2
    17     9    20 1
    18    29    67 1
    19    35    67 1
    20    12    10 ar
    21    10    36 1
    22    21    11 1
    23    11    19 1
    24    11    66 1
    25    14    12 ar
    26    12    38 1
    27    36    13 3
    28    14    39 1
    29    15    40 1
    30    15    41 1
    31    22    16 1
    32    17    16 1
    33    16    42 1
    34    17    43 1
    35    17    44 1
    36    19    18 1
    37    18    45 1
    38    18    46 1
    39    20    19 2
    40    20    47 1
    41    21    48 1
    42    66    49 1
    43    66    50 1
    44    66    51 1
    45    26    22 1
    46    22    52 1
    47    22    53 1
    48    28    23 ar
    49    23    24 ar
    50    23    54 1
    51    24    25 ar
    52    24    55 1
    53    26    25 ar
    54    25    56 1
    55    27    26 ar
    56    28    27 ar
    57    27    57 1
    58    28    58 1
    59    34    29 ar
    60    30    29 ar
    61    31    30 ar
    62    30    59 1
    63    32    31 ar
    64    31    60 1
    65    32    33 ar
    66    33    34 ar
    67    33    61 1
    68    34    62 1
    69    35    63 1
    70    35    64 1
    71    35    65 1
@<TRIPOS>SUBSTRUCTURE
     1 3PZ         1 TEMP              0 ****  ****    0 ROOT
