@<TRIPOS>MOLECULE
molecule
   35    37     1     0     0
SMALL
bcc


@<TRIPOS>ATOM
      1 C13          0.0000     0.0000     0.0000 ca         1 3Q0      -0.060000
      2 C12          1.3550     0.0000     0.0000 ca         1 3Q0      -0.151000
      3 C20          1.4640     0.0010     2.4260 ca         1 3Q0      -0.057000
      4 C5           4.2310    -0.0080    -0.0870 ca         1 3Q0      -0.493600
      5 C14         -0.7020     0.0060     1.2210 ca         1 3Q0      -0.191000
      6 C11          2.0920     0.0000     1.1990 cp         1 3Q0      -0.128500
      7 C19          0.0550     0.0070     2.4830 ca         1 3Q0      -0.040000
      8 C6           3.5730    -0.0070     1.1410 cp         1 3Q0       0.588800
      9 C4           5.6260    -0.0200    -0.0900 ca         1 3Q0       0.767200
     10 C15         -2.0490     0.0140     1.5740 cc         1 3Q0       0.162900
     11 C8           5.6160    -0.0190     2.2190 ca         1 3Q0       0.984900
     12 C1           6.5990    -0.0320    -3.7170 c3         1 3Q0      -0.110100
     13 C2           5.5990    -0.0220    -2.5590 c3         1 3Q0       0.236800
     14 N7           4.2930    -0.0130     2.2630 nb         1 3Q0      -0.841000
     15 N10          6.2760    -0.0260     1.0690 nb         1 3Q0      -0.877000
     16 N17         -2.1200     0.0180     2.9160 na         1 3Q0       0.007800
     17 N18         -0.8310     0.0090     3.4620 nc         1 3Q0      -0.269400
     18 N16         -3.1240     0.0170     0.6990 nv         1 3Q0      -0.958600
     19 N9           6.3290    -0.0240     3.4050 nv         1 3Q0      -0.993500
     20 N3           6.3250    -0.0270    -1.2870 nu         1 3Q0      -0.913900
     21 H13         -0.5420     0.0000    -0.9380 ha         1 3Q0       0.128000
     22 H12          1.8830    -0.0010    -0.9460 ha         1 3Q0       0.130000
     23 H20          2.0480     0.0010     3.3380 ha         1 3Q0       0.166000
     24 H5           3.6740    -0.0030    -1.0160 ha         1 3Q0       0.144000
     25 H1           6.0630    -0.0320    -4.6580 hc         1 3Q0       0.045033
     26 H1A          7.2160    -0.9210    -3.6530 hc         1 3Q0       0.045033
     27 H1B          7.2280     0.8480    -3.6590 hc         1 3Q0       0.045033
     28 H2           4.9680    -0.9000    -2.6190 h1         1 3Q0       0.042200
     29 H2A          4.9850     0.8690    -2.6200 h1         1 3Q0       0.042200
     30 HN16        -3.5260    -0.8490     0.3980 hn         1 3Q0       0.438800
     31 HN1A        -3.5170     0.8840     0.3930 hn         1 3Q0       0.438800
     32 HN9          7.3300    -0.0310     3.3870 hn         1 3Q0       0.448300
     33 HN9A         5.8450    -0.0210     4.2810 hn         1 3Q0       0.448300
     34 HN3          7.3260    -0.0220    -1.2820 hn         1 3Q0       0.449800
     35 HN17        -2.9680     0.0270     3.4470 hn         1 3Q0       0.325700
@<TRIPOS>BOND
     1     2     1 ar
     2     5     1 ar
     3     1    21 1
     4     6     2 ar
     5     2    22 1
     6     3     6 ar
     7     3     7 ar
     8     3    23 1
     9     8     4 ar
    10     9     4 ar
    11     4    24 1
    12     7     5 ar
    13     5    10 2
    14     8     6 1
    15    17     7 2
    16    14     8 ar
    17    15     9 ar
    18     9    20 1
    19    16    10 1
    20    10    18 1
    21    19    11 1
    22    11    14 ar
    23    11    15 ar
    24    13    12 1
    25    12    25 1
    26    12    26 1
    27    12    27 1
    28    20    13 1
    29    13    28 1
    30    13    29 1
    31    17    16 1
    32    18    30 1
    33    18    31 1
    34    19    32 1
    35    19    33 1
    36    20    34 1
    37    16    35 1
@<TRIPOS>SUBSTRUCTURE
     1 3Q0         1 TEMP              0 ****  ****    0 ROOT
