@<TRIPOS>MOLECULE
3Q1
   40    43     1     0     0
SMALL
bcc


@<TRIPOS>ATOM
      1 C9           0.0000     0.0000     0.0000 ca         1 3Q1      -0.028000
      2 C8           1.3560     0.0000     0.0000 ca         1 3Q1      -0.132000
      3 C6           1.4660    -0.0010     2.4260 ca         1 3Q1      -0.033000
      4 C12          4.2320    -0.0070    -0.0880 ca         1 3Q1      -0.443600
      5 C10         -0.7010     0.0050     1.2220 ca         1 3Q1      -0.199000
      6 C7           2.0920     0.0000     1.1980 cp         1 3Q1      -0.145500
      7 C5           0.0580     0.0050     2.4830 ca         1 3Q1      -0.008000
      8 C11          3.5750    -0.0060     1.1400 cp         1 3Q1       0.548800
      9 C13          5.6270    -0.0190    -0.0930 ca         1 3Q1       0.570200
     10 C2          -2.0470     0.0110     1.5770 cc         1 3Q1      -0.159100
     11 C15          5.6180    -0.0200     2.2160 ca         1 3Q1       0.736900
     12 C19          5.9440     1.1210    -2.1280 c3         1 3Q1       0.101800
     13 C23          7.7750    -0.0390    -1.0530 c3         1 3Q1       0.101800
     14 C20          6.6920     1.0420    -3.4610 c3         1 3Q1       0.210900
     15 C22          8.5070    -0.1050    -2.3990 c3         1 3Q1       0.210900
     16 N17          4.2950    -0.0130     2.2610 nb         1 3Q1      -0.716000
     17 N14          6.2770    -0.0250     1.0670 nb         1 3Q1      -0.750000
     18 N3          -2.1170     0.0150     2.9180 na         1 3Q1       0.538800
     19 N4          -0.8290     0.0060     3.4630 nc         1 3Q1      -0.437400
     20 N18          6.3250    -0.0250    -1.2890 nh         1 3Q1      -0.460300
     21 N1          -3.1230     0.0150     0.7010 nv         1 3Q1      -0.496600
     22 N16          6.3320    -0.0260     3.4020 nv         1 3Q1      -0.501500
     23 O21          8.0990     1.0000    -3.2110 os         1 3Q1      -0.410600
     24 H9          -0.5430     0.0000    -0.9370 ha         1 3Q1       0.098000
     25 H8           1.8840     0.0000    -0.9460 ha         1 3Q1       0.110000
     26 H6           2.0500    -0.0000     3.3380 ha         1 3Q1       0.133000
     27 H19          6.2060     2.0420    -1.6210 h1         1 3Q1       0.031700
     28 H19A         4.8760     1.0940    -2.3120 h1         1 3Q1       0.031700
     29 H23          8.0640     0.8650    -0.5300 h1         1 3Q1       0.031700
     30 H23A         8.0360    -0.9060    -0.4590 h1         1 3Q1       0.031700
     31 H20          6.4580     1.9150    -4.0580 h1         1 3Q1       0.013450
     32 H20A         6.3930     0.1450    -3.9900 h1         1 3Q1       0.013450
     33 H22          9.5760    -0.0540    -2.2310 h1         1 3Q1       0.013450
     34 H22A         8.2570    -1.0320    -2.8990 h1         1 3Q1       0.013450
     35 HN1         -3.3860    -0.8280     0.2300 hn         1 3Q1       0.274300
     36 HN1A        -3.6240     0.8630     0.5280 hn         1 3Q1       0.274300
     37 HN16         5.8470    -0.0030     4.2780 hn         1 3Q1       0.274800
     38 HN1B         7.3320    -0.0500     3.3840 hn         1 3Q1       0.274800
     39 HN3         -2.9650     0.0220     3.4490 hn         1 3Q1       0.137700
     40 H12          3.6740    -0.0020    -1.0170 ha         1 3Q1       0.142000
@<TRIPOS>BOND
     1     1     2 ar  
     2     1     5 ar  
     3     1    24 1   
     4     2     6 ar  
     5     2    25 1   
     6     3     6 ar  
     7     3     7 ar  
     8     3    26 1   
     9     4     8 ar  
    10     4     9 ar  
    11     4    40 1   
    12     5     7 ar  
    13     5    10 2   
    14     6     8 1   
    15     7    19 2   
    16     8    16 ar  
    17     9    17 ar  
    18     9    20 1   
    19    10    18 1   
    20    10    21 1   
    21    11    16 ar  
    22    11    17 ar  
    23    11    22 1   
    24    12    14 1   
    25    12    20 1   
    26    12    27 1   
    27    12    28 1   
    28    13    15 1   
    29    13    20 1   
    30    13    29 1   
    31    13    30 1   
    32    14    23 1   
    33    14    31 1   
    34    14    32 1   
    35    15    23 1   
    36    15    33 1   
    37    15    34 1   
    38    18    19 1   
    39    18    39 1   
    40    21    35 1   
    41    21    36 1   
    42    22    37 1   
    43    22    38 1   
@<TRIPOS>SUBSTRUCTURE
     1 3Q1         1 TEMP              0 ****  ****    0 ROOT
