@<TRIPOS>MOLECULE
molecule
   43    46     1     0     0
SMALL
bcc


@<TRIPOS>ATOM
      1 C1           0.0000     0.0000     0.0000 ca         1 3Q2      -0.056000
      2 C2           1.3550     0.0000     0.0000 ca         1 3Q2      -0.154000
      3 C3           1.4640     0.0010     2.4260 ca         1 3Q2      -0.056000
      4 C4           4.2320    -0.0080    -0.0870 ca         1 3Q2      -0.446600
      5 C5          -0.7020     0.0060     1.2220 ca         1 3Q2      -0.196000
      6 C6           2.0920     0.0000     1.1990 cp         1 3Q2      -0.131500
      7 C7           0.0560     0.0080     2.4830 ca         1 3Q2      -0.039000
      8 C8           3.5740    -0.0070     1.1410 cp         1 3Q2       0.577800
      9 C9           5.6260    -0.0200    -0.0900 ca         1 3Q2       0.689200
     10 C10         -2.0480     0.0120     1.5760 cc         1 3Q2       0.166900
     11 C11          5.6170    -0.0180     2.2180 ca         1 3Q2       0.967900
     12 C12          5.9390     1.1130    -2.1300 c3         1 3Q2       0.129800
     13 C13          6.6880     1.0340    -3.4630 c3         1 3Q2       0.138400
     14 C14          8.5070    -0.1000    -2.3960 c3         1 3Q2       0.137400
     15 C15          7.7760    -0.0320    -1.0500 c3         1 3Q2       0.142500
     16 C16          8.1760     1.2480    -0.3140 c3         1 3Q2      -0.105100
     17 N17          4.2940    -0.0110     2.2620 nb         1 3Q2      -0.821000
     18 N18          6.2760    -0.0250     1.0690 nb         1 3Q2      -0.850000
     19 N19         -2.1180     0.0160     2.9170 na         1 3Q2       0.008800
     20 N20         -0.8300     0.0110     3.4630 nc         1 3Q2      -0.269400
     21 N21          6.3240    -0.0280    -1.2870 nh         1 3Q2      -0.693300
     22 N22         -3.1230     0.0140     0.7000 nv         1 3Q2      -0.956600
     23 N23          6.3300    -0.0230     3.4050 nv         1 3Q2      -0.993500
     24 O24          8.0950     0.9990    -3.2120 os         1 3Q2      -0.422600
     25 H1          -0.5430     0.0000    -0.9380 ha         1 3Q2       0.128000
     26 H2           1.8840    -0.0010    -0.9460 ha         1 3Q2       0.131000
     27 H3           2.0490     0.0010     3.3380 ha         1 3Q2       0.165000
     28 H4           3.6740    -0.0040    -1.0160 ha         1 3Q2       0.151000
     29 H12          4.8720     1.0810    -2.3140 h1         1 3Q2       0.055200
     30 H12A         6.1970     2.0370    -1.6260 h1         1 3Q2       0.055200
     31 H13          6.4490     1.9040    -4.0630 h1         1 3Q2       0.055200
     32 H13A         6.3930     0.1330    -3.9890 h1         1 3Q2       0.055200
     33 H14          9.5750    -0.0450    -2.2290 h1         1 3Q2       0.055700
     34 H14A         8.2600    -1.0310    -2.8930 h1         1 3Q2       0.055700
     35 H15          8.0400    -0.8960    -0.4530 h1         1 3Q2       0.085700
     36 H16          7.2860     1.7610     0.0290 hc         1 3Q2       0.043367
     37 H16A         8.7290     1.8940    -0.9860 hc         1 3Q2       0.043367
     38 H16B         8.7980     0.9960     0.5360 hc         1 3Q2       0.043367
     39 HN22        -3.6250     0.8620     0.5260 hn         1 3Q2       0.440300
     40 HN2A        -3.3970    -0.8320     0.2430 hn         1 3Q2       0.440300
     41 HN23         7.3240    -0.1440     3.3910 hn         1 3Q2       0.449300
     42 HN2B         5.8510     0.0760     4.2780 hn         1 3Q2       0.449300
     43 HN19        -2.9670     0.0220     3.4480 hn         1 3Q2       0.326700
@<TRIPOS>BOND
     1     2     1 ar
     2     5     1 ar
     3     1    25 1
     4     6     2 ar
     5     2    26 1
     6     3     6 ar
     7     3     7 ar
     8     3    27 1
     9     9     4 ar
    10     8     4 ar
    11     4    28 1
    12     7     5 ar
    13     5    10 2
    14     8     6 1
    15    20     7 2
    16    17     8 ar
    17    18     9 ar
    18     9    21 1
    19    19    10 1
    20    10    22 1
    21    23    11 1
    22    11    18 ar
    23    11    17 ar
    24    13    12 1
    25    21    12 1
    26    12    29 1
    27    12    30 1
    28    13    24 1
    29    13    31 1
    30    13    32 1
    31    14    24 1
    32    14    15 1
    33    14    33 1
    34    14    34 1
    35    21    15 1
    36    15    16 1
    37    15    35 1
    38    16    36 1
    39    16    37 1
    40    16    38 1
    41    20    19 1
    42    22    39 1
    43    22    40 1
    44    23    41 1
    45    23    42 1
    46    19    43 1
@<TRIPOS>SUBSTRUCTURE
     1 3Q2         1 TEMP              0 ****  ****    0 ROOT
