@<TRIPOS>MOLECULE
3Q3
   54    58     1     0     0
SMALL
bcc


@<TRIPOS>ATOM
      1 C1           0.0000     0.0000     0.0000 ca         1 3Q3      -0.116000
      2 C2           1.3830     0.0000     0.0000 ca         1 3Q3      -0.081500
      3 C3          -0.6950    -0.0000     1.1970 ca         1 3Q3      -0.081500
      4 C4           6.5270     1.6160    13.2430 ca         1 3Q3      -0.015000
      5 C5           5.8720     1.5810    12.0570 ca         1 3Q3      -0.108000
      6 C6           2.0750     0.0000     1.1960 ca         1 3Q3      -0.119000
      7 C7          -0.0080    -0.0050     2.3940 ca         1 3Q3      -0.119000
      8 C8           3.9060     2.6620    12.9840 ca         1 3Q3      -0.101000
      9 C9           4.0520     1.7920     9.6710 ca         1 3Q3      -0.482600
     10 C10          5.8990     2.1740    14.3740 ca         1 3Q3      -0.212000
     11 C11          4.5720     2.0970    11.9170 cp         1 3Q3      -0.101500
     12 C12          4.5380     2.7180    14.2420 ca         1 3Q3      -0.003000
     13 C13          1.3810     0.0000     2.3980 ca         1 3Q3      -0.086400
     14 C14          3.3310     2.3540    10.7230 cp         1 3Q3       0.546800
     15 C15          3.4500     1.7220     8.4160 ca         1 3Q3       0.560200
     16 C16          6.2670     2.3610    15.7030 cc         1 3Q3      -0.153100
     17 C17          1.5540     2.7110     9.2900 ca         1 3Q3       0.735900
     18 C18          3.2610     0.6410     3.7070 c          1 3Q3       0.557100
     19 C19          5.4070     1.8680     7.1180 c3         1 3Q3       0.100800
     20 C20          3.3030     1.2070     6.1240 c3         1 3Q3       0.107800
     21 C21          6.1520     1.1970     5.9610 c3         1 3Q3       0.208400
     22 C22          4.0690     0.5420     4.9760 c3         1 3Q3       0.104100
     23 N23          2.0950     2.7990    10.4950 nb         1 3Q3      -0.675000
     24 N24          2.2130     2.1880     8.2670 nb         1 3Q3      -0.753000
     25 N25          5.2420     2.9600    16.3310 na         1 3Q3       0.539800
     26 N26          4.1920     3.1760    15.4320 nc         1 3Q3      -0.437400
     27 N27          4.1300     1.1760     7.3390 nh         1 3Q3      -0.463300
     28 N28          7.4760     1.9960    16.2760 nv         1 3Q3      -0.496600
     29 N29          0.2680     3.1840     9.0930 nv         1 3Q3      -0.499500
     30 N30          2.0790     0.0000     3.6100 ns         1 3Q3      -0.040100
     31 O31          3.6730     1.2970     2.7750 o          1 3Q3      -0.601100
     32 O32          5.3210     1.2100     4.7960 os         1 3Q3      -0.368600
     33 H1          -0.5410     0.0020    -0.9390 ha         1 3Q3       0.102000
     34 H2           1.9230    -0.0000    -0.9390 ha         1 3Q3       0.102500
     35 H3          -1.7780    -0.0020     1.1940 ha         1 3Q3       0.102500
     36 H5           6.3630     1.1450    11.1950 ha         1 3Q3       0.104000
     37 H6           3.1590     0.0020     1.1950 ha         1 3Q3       0.122000
     38 H7          -0.5520    -0.0050     3.3310 ha         1 3Q3       0.122000
     39 H8           2.9040     3.0540    12.8580 ha         1 3Q3       0.139000
     40 H9           5.0480     1.3950     9.8300 ha         1 3Q3       0.149000
     41 H19          6.0100     1.8080     8.0170 h1         1 3Q3       0.030200
     42 H19A         5.2180     2.9060     6.8720 h1         1 3Q3       0.030200
     43 H20          2.3800     0.6690     6.3020 h1         1 3Q3       0.040200
     44 H20A         3.0840     2.2360     5.8630 h1         1 3Q3       0.040200
     45 H21          7.0660     1.7410     5.7570 h1         1 3Q3       0.016700
     46 H21A         6.3850     0.1730     6.2270 h1         1 3Q3       0.016700
     47 H22          4.2470    -0.4990     5.2170 h1         1 3Q3       0.025700
     48 HN28         7.6610     1.0350    16.4850 hn         1 3Q3       0.275300
     49 HN2A         8.1770     2.6890    16.4500 hn         1 3Q3       0.275300
     50 HN29        -0.2400     3.5860     9.8560 hn         1 3Q3       0.276300
     51 HN2B        -0.1500     3.1340     8.1850 hn         1 3Q3       0.276300
     52 HN30         1.6980    -0.4700     4.4080 hn         1 3Q3       0.169500
     53 HN25         5.2310     3.2140    17.2990 hn         1 3Q3       0.138700
     54 H4           7.5290     1.2110    13.3220 ha         1 3Q3       0.101000
@<TRIPOS>BOND
     1     1     2 ar  
     2     1     3 ar  
     3     1    33 1   
     4     2     6 ar  
     5     2    34 1   
     6     3     7 ar  
     7     3    35 1   
     8     4     5 ar  
     9     4    10 ar  
    10     4    54 1   
    11     5    11 ar  
    12     5    36 1   
    13     6    13 ar  
    14     6    37 1   
    15     7    13 ar  
    16     7    38 1   
    17     8    11 ar  
    18     8    12 ar  
    19     8    39 1   
    20     9    14 ar  
    21     9    15 ar  
    22     9    40 1   
    23    10    12 ar  
    24    10    16 2   
    25    11    14 1   
    26    12    26 2   
    27    13    30 1   
    28    14    23 ar  
    29    15    24 ar  
    30    15    27 1   
    31    16    25 1   
    32    16    28 1   
    33    17    23 ar  
    34    17    24 ar  
    35    17    29 1   
    36    18    22 1   
    37    18    30 1   
    38    18    31 2   
    39    19    21 1   
    40    19    27 1   
    41    19    41 1   
    42    19    42 1   
    43    20    22 1   
    44    20    27 1   
    45    20    43 1   
    46    20    44 1   
    47    21    32 1   
    48    21    45 1   
    49    21    46 1   
    50    22    32 1   
    51    22    47 1   
    52    25    26 1   
    53    25    53 1   
    54    28    48 1   
    55    28    49 1   
    56    29    50 1   
    57    29    51 1   
    58    30    52 1   
@<TRIPOS>SUBSTRUCTURE
     1 3Q3         1 TEMP              0 ****  ****    0 ROOT
