@<TRIPOS>MOLECULE
3Q4
   59    63     1     0     0
SMALL
bcc


@<TRIPOS>ATOM
      1 C1           0.0000     0.0000     0.0000 ca         1 3Q4      -0.116000
      2 C2           1.3830     0.0000     0.0000 ca         1 3Q4      -0.081000
      3 C3          -0.6950    -0.0000     1.1960 ca         1 3Q4      -0.081000
      4 C4           6.7590     7.5930     5.1170 ca         1 3Q4      -0.029000
      5 C5           6.9040     6.2630     5.3260 ca         1 3Q4      -0.128000
      6 C6           2.0740     0.0000     1.1950 ca         1 3Q4      -0.119500
      7 C7          -0.0090    -0.0060     2.3950 ca         1 3Q4      -0.119500
      8 C8           9.3220     6.4370     5.4660 ca         1 3Q4      -0.034000
      9 C9           7.1250     3.4270     5.7710 ca         1 3Q4      -0.439600
     10 C10          7.8960     8.4230     5.0650 ca         1 3Q4      -0.191000
     11 C11          8.1720     5.6780     5.5010 cp         1 3Q4      -0.145500
     12 C12          9.2280     7.8260     5.2460 ca         1 3Q4      -0.011000
     13 C13          1.3800    -0.0010     2.3980 ca         1 3Q4      -0.089400
     14 C14          8.2730     4.2160     5.7320 cp         1 3Q4       0.548800
     15 C15          7.2700     2.0600     5.9970 ca         1 3Q4       0.574200
     16 C16          8.1020     9.7860     4.8700 cc         1 3Q4      -0.160100
     17 C17          9.5590     2.3370     6.1140 ca         1 3Q4       0.734900
     18 C18          3.2600     0.6390     3.7080 c          1 3Q4       0.564100
     19 C19          4.4200    -0.9270     5.2450 c3         1 3Q4      -0.032400
     20 C20          5.2920    -1.0120     6.5010 c3         1 3Q4      -0.021400
     21 C21          5.3600     1.3490     4.8230 c3         1 3Q4       0.148800
     22 C22          4.0690     0.5400     4.9760 c3         1 3Q4      -0.123700
     23 C23          6.5460    -0.1590     6.3040 c3         1 3Q4       0.123500
     24 C24          7.3430    -0.6910     5.1110 c3         1 3Q4      -0.038100
     25 N25          9.4620     3.6400     5.9060 nb         1 3Q4      -0.716000
     26 N26          8.4900     1.5560     6.1620 nb         1 3Q4      -0.751000
     27 N27          9.4270    10.0110     4.9240 na         1 3Q4       0.533800
     28 N28         10.1050     8.8100     5.1580 nc         1 3Q4      -0.434400
     29 N29          6.1570     1.2350     6.0510 nh         1 3Q4      -0.465300
     30 N30          7.1190    10.7400     4.6570 nv         1 3Q4      -0.500600
     31 N31         10.8120     1.7740     6.2890 nv         1 3Q4      -0.504500
     32 N32          2.0780    -0.0010     3.6100 ns         1 3Q4      -0.033100
     33 O33          3.6730     1.2950     2.7750 o          1 3Q4      -0.631100
     34 H1          -0.5400     0.0020    -0.9390 ha         1 3Q4       0.103000
     35 H2           1.9240     0.0000    -0.9380 ha         1 3Q4       0.103000
     36 H3          -1.7780    -0.0020     1.1930 ha         1 3Q4       0.103000
     37 H5           6.0220     5.6340     5.3600 ha         1 3Q4       0.112000
     38 H6           3.1580     0.0020     1.1940 ha         1 3Q4       0.121500
     39 H7          -0.5540    -0.0060     3.3310 ha         1 3Q4       0.121500
     40 H8          10.2900     5.9690     5.6030 ha         1 3Q4       0.133000
     41 H9           6.1450     3.8670     5.6340 ha         1 3Q4       0.144000
     42 H19          3.5090    -1.4930     5.3980 hc         1 3Q4       0.022700
     43 H19A         4.9640    -1.3280     4.3990 hc         1 3Q4       0.022700
     44 H20          5.5800    -2.0420     6.6700 hc         1 3Q4       0.022700
     45 H20A         4.7340    -0.6420     7.3520 hc         1 3Q4       0.022700
     46 H21          5.9300     0.9620     3.9870 h1         1 3Q4       0.041200
     47 H21A         5.1140     2.3890     4.6490 h1         1 3Q4       0.041200
     48 H22          3.4960     0.9310     5.8080 hc         1 3Q4       0.048700
     49 H23          7.1540    -0.2040     7.1990 h1         1 3Q4       0.054700
     50 H24          6.7680    -1.4560     4.6050 hc         1 3Q4       0.017033
     51 H24A         8.2770    -1.1130     5.4600 hc         1 3Q4       0.017033
     52 H24B         7.5490     0.1210     4.4230 hc         1 3Q4       0.017033
     53 HN30         6.8360    10.9670     3.7240 hn         1 3Q4       0.273800
     54 HN3A         6.7170    11.2260     5.4340 hn         1 3Q4       0.273800
     55 HN31        10.9000     0.7920     6.4590 hn         1 3Q4       0.274300
     56 HN3B        11.6290     2.3510     6.2540 hn         1 3Q4       0.274300
     57 HN32         1.6740    -0.4310     4.4190 hn         1 3Q4       0.169500
     58 HN27         9.8620    10.9050     4.8140 hn         1 3Q4       0.137700
     59 H4           5.7710     8.0180     4.9850 ha         1 3Q4       0.099000
@<TRIPOS>BOND
     1     1     2 ar  
     2     1     3 ar  
     3     1    34 1   
     4     2     6 ar  
     5     2    35 1   
     6     3     7 ar  
     7     3    36 1   
     8     4     5 ar  
     9     4    10 ar  
    10     4    59 1   
    11     5    11 ar  
    12     5    37 1   
    13     6    13 ar  
    14     6    38 1   
    15     7    13 ar  
    16     7    39 1   
    17     8    11 ar  
    18     8    12 ar  
    19     8    40 1   
    20     9    14 ar  
    21     9    15 ar  
    22     9    41 1   
    23    10    12 ar  
    24    10    16 2   
    25    11    14 1   
    26    12    28 2   
    27    13    32 1   
    28    14    25 ar  
    29    15    26 ar  
    30    15    29 1   
    31    16    27 1   
    32    16    30 1   
    33    17    25 ar  
    34    17    26 ar  
    35    17    31 1   
    36    18    22 1   
    37    18    32 1   
    38    18    33 2   
    39    19    20 1   
    40    19    22 1   
    41    19    42 1   
    42    19    43 1   
    43    20    23 1   
    44    20    44 1   
    45    20    45 1   
    46    21    22 1   
    47    21    29 1   
    48    21    46 1   
    49    21    47 1   
    50    22    48 1   
    51    23    24 1   
    52    23    29 1   
    53    23    49 1   
    54    24    50 1   
    55    24    51 1   
    56    24    52 1   
    57    27    28 1   
    58    27    58 1   
    59    30    53 1   
    60    30    54 1   
    61    31    55 1   
    62    31    56 1   
    63    32    57 1   
@<TRIPOS>SUBSTRUCTURE
     1 3Q4         1 TEMP              0 ****  ****    0 ROOT
