@<TRIPOS>MOLECULE
3Q5
   62    65     1     0     0
SMALL
bcc


@<TRIPOS>ATOM
      1 C1           0.0000     0.0000     0.0000 ca         1 3Q5      -0.027000
      2 C2           1.3550     0.0000     0.0000 ca         1 3Q5      -0.131000
      3 C3           1.4660    -0.0000     2.4260 ca         1 3Q5      -0.032000
      4 C4           4.2320    -0.0070    -0.0880 ca         1 3Q5      -0.444600
      5 C5          -0.7010     0.0050     1.2220 ca         1 3Q5      -0.193000
      6 C6           2.0920     0.0000     1.1980 cp         1 3Q5      -0.146500
      7 C7           0.0570     0.0050     2.4830 ca         1 3Q5      -0.010000
      8 C8           3.5740    -0.0070     1.1390 cp         1 3Q5       0.549800
      9 C9           5.6260    -0.0190    -0.0920 ca         1 3Q5       0.570200
     10 C10         -2.0480     0.0120     1.5760 cc         1 3Q5      -0.159100
     11 C11          5.6170    -0.0190     2.2160 ca         1 3Q5       0.735900
     12 C12          6.2460    -2.0960    -5.6700 c          1 3Q5       0.686100
     13 C13          8.1190    -1.0550    -3.3050 c3         1 3Q5      -0.058400
     14 C14          8.5100     0.1070    -2.3870 c3         1 3Q5      -0.018400
     15 C15          5.9180    -1.1600    -2.1290 c3         1 3Q5       0.120800
     16 C16          6.5990    -1.0550    -3.4960 c3         1 3Q5       0.028700
     17 C17          7.7740    -0.0320    -1.0530 c3         1 3Q5       0.120500
     18 C18          8.1750    -1.3490    -0.3850 c3         1 3Q5      -0.038100
     19 C19          5.5110    -4.2580    -8.5660 c3         1 3Q5      -0.029100
     20 C20          7.3850    -2.6310    -8.2820 c3         1 3Q5      -0.029100
     21 C21          5.0200    -1.8240    -8.2840 c3         1 3Q5      -0.029100
     22 C22          5.9500    -2.9680    -7.8710 c3         1 3Q5       0.195800
     23 N23          4.2950    -0.0130     2.2620 nb         1 3Q5      -0.716000
     24 N24          6.2770    -0.0250     1.0670 nb         1 3Q5      -0.748000
     25 N25         -2.1180     0.0150     2.9180 na         1 3Q5       0.535800
     26 N26         -0.8290     0.0070     3.4630 nc         1 3Q5      -0.434400
     27 N27          6.3240    -0.0260    -1.2890 nh         1 3Q5      -0.447300
     28 N28         -3.1230     0.0140     0.7010 nv         1 3Q5      -0.500600
     29 N29          6.3310    -0.0250     3.4030 nv         1 3Q5      -0.502500
     30 N30          6.2100    -2.1970    -4.3260 ns         1 3Q5      -0.172900
     31 O31          6.6000    -1.0580    -6.1920 o          1 3Q5      -0.661000
     32 O32          5.8880    -3.1470    -6.4320 os         1 3Q5      -0.420900
     33 H1          -0.5430     0.0000    -0.9370 ha         1 3Q5       0.099000
     34 H2           1.8830     0.0000    -0.9460 ha         1 3Q5       0.110000
     35 H3           2.0500    -0.0000     3.3380 ha         1 3Q5       0.133000
     36 H4           3.6740    -0.0020    -1.0160 ha         1 3Q5       0.143000
     37 H13          8.4260    -1.9910    -2.8540 hc         1 3Q5       0.030200
     38 H13A         8.6030    -0.9340    -4.2670 hc         1 3Q5       0.030200
     39 H14          8.2340     1.0450    -2.8550 hc         1 3Q5       0.025700
     40 H14A         9.5790     0.0850    -2.2130 hc         1 3Q5       0.025700
     41 H15          4.8430    -1.1440    -2.2610 h1         1 3Q5       0.028200
     42 H15A         6.2140    -2.0860    -1.6500 h1         1 3Q5       0.028200
     43 H16          6.2970    -0.1320    -3.9770 h1         1 3Q5       0.069700
     44 H17          8.0370     0.7990    -0.4100 h1         1 3Q5       0.056700
     45 H18          7.2940    -1.9620    -0.2360 hc         1 3Q5       0.015700
     46 H18A         8.8790    -1.8770    -1.0180 hc         1 3Q5       0.015700
     47 H18B         8.6370    -1.1420     0.5730 hc         1 3Q5       0.015700
     48 H19          4.4940    -4.4960    -8.2770 hc         1 3Q5       0.018811
     49 H19A         5.5580    -4.1240    -9.6400 hc         1 3Q5       0.018811
     50 H19B         6.1680    -5.0680    -8.2740 hc         1 3Q5       0.018811
     51 H20          7.5600    -1.5700    -8.1480 hc         1 3Q5       0.018811
     52 H20A         8.0780    -3.1920    -7.6670 hc         1 3Q5       0.018811
     53 H20B         7.5340    -2.8920    -9.3230 hc         1 3Q5       0.018811
     54 H21          5.5310    -0.8780    -8.1530 hc         1 3Q5       0.018811
     55 H21A         4.7410    -1.9430    -9.3240 hc         1 3Q5       0.018811
     56 H21B         4.1300    -1.8420    -7.6670 hc         1 3Q5       0.018811
     57 HN28        -3.5330    -0.8510     0.4110 hn         1 3Q5       0.274300
     58 HN2A        -3.5070     0.8820     0.3830 hn         1 3Q5       0.274300
     59 HN29         5.8460    -0.0450     4.2780 hn         1 3Q5       0.274800
     60 HN2B         7.3310     0.0070     3.3850 hn         1 3Q5       0.274800
     61 HN30         5.8960    -3.0440    -3.8960 hn         1 3Q5       0.173500
     62 HN25        -2.9660     0.0230     3.4490 hn         1 3Q5       0.137700
@<TRIPOS>BOND
     1     1     2 ar  
     2     1     5 ar  
     3     1    33 1   
     4     2     6 ar  
     5     2    34 1   
     6     3     6 ar  
     7     3     7 ar  
     8     3    35 1   
     9     4     8 ar  
    10     4     9 ar  
    11     4    36 1   
    12     5     7 ar  
    13     5    10 2   
    14     6     8 1   
    15     7    26 2   
    16     8    23 ar  
    17     9    24 ar  
    18     9    27 1   
    19    10    25 1   
    20    10    28 1   
    21    11    23 ar  
    22    11    24 ar  
    23    11    29 1   
    24    12    30 1   
    25    12    31 2   
    26    12    32 1   
    27    13    14 1   
    28    13    16 1   
    29    13    37 1   
    30    13    38 1   
    31    14    17 1   
    32    14    39 1   
    33    14    40 1   
    34    15    16 1   
    35    15    27 1   
    36    15    41 1   
    37    15    42 1   
    38    16    30 1   
    39    16    43 1   
    40    17    18 1   
    41    17    27 1   
    42    17    44 1   
    43    18    45 1   
    44    18    46 1   
    45    18    47 1   
    46    19    22 1   
    47    19    48 1   
    48    19    49 1   
    49    19    50 1   
    50    20    22 1   
    51    20    51 1   
    52    20    52 1   
    53    20    53 1   
    54    21    22 1   
    55    21    54 1   
    56    21    55 1   
    57    21    56 1   
    58    22    32 1   
    59    25    26 1   
    60    25    62 1   
    61    28    57 1   
    62    28    58 1   
    63    29    59 1   
    64    29    60 1   
    65    30    61 1   
@<TRIPOS>SUBSTRUCTURE
     1 3Q5         1 TEMP              0 ****  ****    0 ROOT
