@<TRIPOS>MOLECULE
3Q6
   62    65     1     0     0
SMALL
bcc


@<TRIPOS>ATOM
      1 C1           0.0000     0.0000     0.0000 ca         1 3Q6      -0.015000
      2 C2           1.3550     0.0000     0.0000 ca         1 3Q6      -0.149000
      3 C3           1.4660    -0.0010     2.4260 ca         1 3Q6      -0.047000
      4 C4           4.2320    -0.0050    -0.0880 ca         1 3Q6      -0.440600
      5 C5          -0.7010     0.0050     1.2220 ca         1 3Q6      -0.251000
      6 C6           2.0920     0.0000     1.1980 cp         1 3Q6      -0.134500
      7 C7           0.0570     0.0050     2.4830 ca         1 3Q6       0.023000
      8 C8           3.5740    -0.0060     1.1400 cp         1 3Q6       0.547800
      9 C9           5.6270    -0.0160    -0.0920 ca         1 3Q6       0.565200
     10 C10         -2.0470     0.0090     1.5760 cc         1 3Q6      -0.127100
     11 C11          5.6180    -0.0170     2.2170 ca         1 3Q6       0.734900
     12 C12          5.0690    -2.1490    -5.0380 c          1 3Q6       0.685100
     13 C13          8.1200    -1.0480    -3.3050 c3         1 3Q6      -0.038400
     14 C14          7.7740    -0.0270    -1.0530 c3         1 3Q6       0.138800
     15 C15          5.9190    -1.1550    -2.1300 c3         1 3Q6       0.121800
     16 C16          8.5110     0.1140    -2.3870 c3         1 3Q6      -0.043700
     17 C17          6.6000    -1.0490    -3.4960 c3         1 3Q6       0.019700
     18 C18          8.1230     1.4390    -3.0470 c3         1 3Q6      -0.008100
     19 C19          3.2320    -4.3650    -7.3440 c3         1 3Q6      -0.028767
     20 C20          3.5490    -1.8920    -7.4940 c3         1 3Q6      -0.028767
     21 C21          2.3110    -2.8770    -5.5610 c3         1 3Q6      -0.028767
     22 C22          3.4680    -3.0850    -6.5410 c3         1 3Q6       0.195800
     23 N23          4.2950    -0.0110     2.2610 nb         1 3Q6      -0.716000
     24 N24          6.2770    -0.0220     1.0670 nb         1 3Q6      -0.753000
     25 N25         -2.1180     0.0110     2.9180 na         1 3Q6       0.493800
     26 N26         -0.8300     0.0050     3.4640 nc         1 3Q6      -0.459400
     27 N27          6.3250    -0.0220    -1.2900 nh         1 3Q6      -0.447300
     28 N28         -3.1230     0.0120     0.7010 nv         1 3Q6      -0.419600
     29 N29          6.3310    -0.0230     3.4030 nv         1 3Q6      -0.503500
     30 N30          6.2130    -2.1910    -4.3270 ns         1 3Q6      -0.169900
     31 O31          4.3590    -1.1640    -4.9910 o          1 3Q6      -0.663000
     32 O32          4.7120    -3.1990    -5.8010 os         1 3Q6      -0.420900
     33 H1          -0.5430     0.0000    -0.9370 ha         1 3Q6       0.091000
     34 H2           1.8840     0.0010    -0.9460 ha         1 3Q6       0.114000
     35 H3           2.0500    -0.0010     3.3380 ha         1 3Q6       0.133000
     36 H4           3.6740    -0.0010    -1.0160 ha         1 3Q6       0.148000
     37 H13          8.4270    -1.9840    -2.8540 hc         1 3Q6       0.020200
     38 H13A         8.6040    -0.9270    -4.2660 hc         1 3Q6       0.020200
     39 H14          8.0590    -0.9600    -0.5810 h1         1 3Q6       0.031200
     40 H14A         8.0360     0.8040    -0.4090 h1         1 3Q6       0.031200
     41 H15          4.8440    -1.1380    -2.2620 h1         1 3Q6       0.029700
     42 H15A         6.2150    -2.0810    -1.6520 h1         1 3Q6       0.029700
     43 H16          9.5800     0.0900    -2.2120 hc         1 3Q6       0.029700
     44 H17          6.2980    -0.1260    -3.9770 h1         1 3Q6       0.075700
     45 H18          7.0590     1.6040    -2.9270 hc         1 3Q6       0.012367
     46 H18A         8.3660     1.4020    -4.1020 hc         1 3Q6       0.012367
     47 H18B         8.6690     2.2490    -2.5790 hc         1 3Q6       0.012367
     48 H19          2.3030    -4.2800    -7.8950 hc         1 3Q6       0.018700
     49 H19A         4.0510    -4.5120    -8.0380 hc         1 3Q6       0.018700
     50 H19B         3.1750    -5.2100    -6.6690 hc         1 3Q6       0.018700
     51 H20          3.2880    -0.9860    -6.9610 hc         1 3Q6       0.018700
     52 H20A         4.5570    -1.8060    -7.8810 hc         1 3Q6       0.018700
     53 H20B         2.8580    -2.0390    -8.3160 hc         1 3Q6       0.018700
     54 H21          2.4960    -3.4460    -4.6580 hc         1 3Q6       0.018700
     55 H21A         2.2310    -1.8250    -5.3160 hc         1 3Q6       0.018700
     56 H21B         1.3870    -3.2130    -6.0170 hc         1 3Q6       0.018700
     57 HN28        -2.9860     0.2610    -0.2590 hn         1 3Q6       0.271300
     58 HN2A        -4.0320    -0.2500     1.0250 hn         1 3Q6       0.271300
     59 HN29         7.3320    -0.0280     3.3850 hn         1 3Q6       0.273800
     60 HN2B         5.8460    -0.0210     4.2780 hn         1 3Q6       0.273800
     61 HN30         6.8020    -2.9980    -4.3740 hn         1 3Q6       0.175500
     62 HN25        -2.9660     0.0160     3.4490 hn         1 3Q6       0.139700
@<TRIPOS>BOND
     1     1     2 ar  
     2     1     5 ar  
     3     1    33 1   
     4     2     6 ar  
     5     2    34 1   
     6     3     6 ar  
     7     3     7 ar  
     8     3    35 1   
     9     4     8 ar  
    10     4     9 ar  
    11     4    36 1   
    12     5     7 ar  
    13     5    10 2   
    14     6     8 1   
    15     7    26 2   
    16     8    23 ar  
    17     9    24 ar  
    18     9    27 1   
    19    10    25 1   
    20    10    28 1   
    21    11    23 ar  
    22    11    24 ar  
    23    11    29 1   
    24    12    30 1   
    25    12    31 2   
    26    12    32 1   
    27    13    16 1   
    28    13    17 1   
    29    13    37 1   
    30    13    38 1   
    31    14    16 1   
    32    14    27 1   
    33    14    39 1   
    34    14    40 1   
    35    15    17 1   
    36    15    27 1   
    37    15    41 1   
    38    15    42 1   
    39    16    18 1   
    40    16    43 1   
    41    17    30 1   
    42    17    44 1   
    43    18    45 1   
    44    18    46 1   
    45    18    47 1   
    46    19    22 1   
    47    19    48 1   
    48    19    49 1   
    49    19    50 1   
    50    20    22 1   
    51    20    51 1   
    52    20    52 1   
    53    20    53 1   
    54    21    22 1   
    55    21    54 1   
    56    21    55 1   
    57    21    56 1   
    58    22    32 1   
    59    25    26 1   
    60    25    62 1   
    61    28    57 1   
    62    28    58 1   
    63    29    59 1   
    64    29    60 1   
    65    30    61 1   
@<TRIPOS>SUBSTRUCTURE
     1 3Q6         1 TEMP              0 ****  ****    0 ROOT
