@<TRIPOS>MOLECULE
molecule
   62    65     1     0     0
SMALL
bcc


@<TRIPOS>ATOM
      1 C1           0.0000     0.0000     0.0000 ca         1 3Q6      -0.046000
      2 C2           1.3550     0.0000     0.0000 ca         1 3Q6      -0.168000
      3 C3           1.4660    -0.0010     2.4260 ca         1 3Q6      -0.067000
      4 C4           4.2320    -0.0050    -0.0880 ca         1 3Q6      -0.442600
      5 C5          -0.7010     0.0050     1.2220 ca         1 3Q6      -0.247000
      6 C6           2.0920     0.0000     1.1980 cp         1 3Q6      -0.121500
      7 C7           0.0570     0.0050     2.4830 ca         1 3Q6      -0.014000
      8 C8           3.5740    -0.0060     1.1400 cp         1 3Q6       0.576800
      9 C9           5.6270    -0.0160    -0.0920 ca         1 3Q6       0.689200
     10 C10         -2.0470     0.0090     1.5760 cc         1 3Q6       0.202900
     11 C11          5.6180    -0.0170     2.2170 ca         1 3Q6       0.968900
     12 C12          5.0690    -2.1490    -5.0380 c          1 3Q6       0.753100
     13 C13          8.1200    -1.0480    -3.3050 c3         1 3Q6      -0.094400
     14 C14          7.7740    -0.0270    -1.0530 c3         1 3Q6       0.172800
     15 C15          5.9190    -1.1550    -2.1300 c3         1 3Q6       0.154800
     16 C16          8.5110     0.1140    -2.3870 c3         1 3Q6      -0.073700
     17 C17          6.6000    -1.0490    -3.4960 c3         1 3Q6       0.132700
     18 C18          8.1230     1.4390    -3.0470 c3         1 3Q6      -0.092100
     19 C19          3.2320    -4.3650    -7.3440 c3         1 3Q6      -0.105433
     20 C20          3.5490    -1.8920    -7.4940 c3         1 3Q6      -0.105433
     21 C21          2.3110    -2.8770    -5.5610 c3         1 3Q6      -0.105433
     22 C22          3.4680    -3.0850    -6.5410 c3         1 3Q6       0.178800
     23 N23          4.2950    -0.0110     2.2610 nb         1 3Q6      -0.821000
     24 N24          6.2770    -0.0220     1.0670 nb         1 3Q6      -0.858000
     25 N25         -2.1180     0.0110     2.9180 na         1 3Q6      -0.018200
     26 N26         -0.8300     0.0050     3.4640 nc         1 3Q6      -0.286400
     27 N27          6.3250    -0.0220    -1.2900 nh         1 3Q6      -0.692300
     28 N28         -3.1230     0.0120     0.7010 nv         1 3Q6      -0.910600
     29 N29          6.3310    -0.0230     3.4030 nv         1 3Q6      -0.993500
     30 N30          6.2130    -2.1910    -4.3270 ns         1 3Q6      -0.571900
     31 O31          4.3590    -1.1640    -4.9910 o          1 3Q6      -0.616000
     32 O32          4.7120    -3.1990    -5.8010 os         1 3Q6      -0.438900
     33 H1          -0.5430     0.0000    -0.9370 ha         1 3Q6       0.118000
     34 H2           1.8840     0.0010    -0.9460 ha         1 3Q6       0.134000
     35 H3           2.0500    -0.0010     3.3380 ha         1 3Q6       0.164000
     36 H4           3.6740    -0.0010    -1.0160 ha         1 3Q6       0.157000
     37 H13          8.4270    -1.9840    -2.8540 hc         1 3Q6       0.048200
     38 H13A         8.6040    -0.9270    -4.2660 hc         1 3Q6       0.048200
     39 H14          8.0590    -0.9600    -0.5810 h1         1 3Q6       0.057700
     40 H14A         8.0360     0.8040    -0.4090 h1         1 3Q6       0.057700
     41 H15          4.8440    -1.1380    -2.2620 h1         1 3Q6       0.055700
     42 H15A         6.2150    -2.0810    -1.6520 h1         1 3Q6       0.055700
     43 H16          9.5800     0.0900    -2.2120 hc         1 3Q6       0.057700
     44 H17          6.2980    -0.1260    -3.9770 h1         1 3Q6       0.098700
     45 H18          7.0590     1.6040    -2.9270 hc         1 3Q6       0.042700
     46 H18A         8.3660     1.4020    -4.1020 hc         1 3Q6       0.042700
     47 H18B         8.6690     2.2490    -2.5790 hc         1 3Q6       0.042700
     48 H19          2.3030    -4.2800    -7.8950 hc         1 3Q6       0.049589
     49 H19A         4.0510    -4.5120    -8.0380 hc         1 3Q6       0.049589
     50 H19B         3.1750    -5.2100    -6.6690 hc         1 3Q6       0.049589
     51 H20          3.2880    -0.9860    -6.9610 hc         1 3Q6       0.049589
     52 H20A         4.5570    -1.8060    -7.8810 hc         1 3Q6       0.049589
     53 H20B         2.8580    -2.0390    -8.3160 hc         1 3Q6       0.049589
     54 H21          2.4960    -3.4460    -4.6580 hc         1 3Q6       0.049589
     55 H21A         2.2310    -1.8250    -5.3160 hc         1 3Q6       0.049589
     56 H21B         1.3870    -3.2130    -6.0170 hc         1 3Q6       0.049589
     57 HN28        -2.9860     0.2610    -0.2590 hn         1 3Q6       0.442800
     58 HN2A        -4.0320    -0.2500     1.0250 hn         1 3Q6       0.442800
     59 HN29         7.3320    -0.0280     3.3850 hn         1 3Q6       0.448800
     60 HN2B         5.8460    -0.0210     4.2780 hn         1 3Q6       0.448800
     61 HN30         6.8020    -2.9980    -4.3740 hn         1 3Q6       0.323500
     62 HN25        -2.9660     0.0160     3.4490 hn         1 3Q6       0.325700
@<TRIPOS>BOND
     1     2     1 ar  
     2     5     1 ar  
     3     1    33 1   
     4     6     2 ar  
     5     2    34 1   
     6     3     6 ar  
     7     3     7 ar  
     8     3    35 1   
     9     9     4 ar  
    10     8     4 ar  
    11     4    36 1   
    12     7     5 ar  
    13     5    10 2   
    14     8     6 1   
    15    26     7 2   
    16    23     8 ar  
    17    24     9 ar  
    18     9    27 1   
    19    25    10 1   
    20    10    28 1   
    21    29    11 1   
    22    11    24 ar  
    23    11    23 ar  
    24    32    12 1   
    25    30    12 1   
    26    12    31 2   
    27    17    13 1   
    28    13    16 1   
    29    13    37 1   
    30    13    38 1   
    31    27    14 1   
    32    14    16 1   
    33    14    39 1   
    34    14    40 1   
    35    15    27 1   
    36    15    17 1   
    37    15    41 1   
    38    15    42 1   
    39    16    18 1   
    40    16    43 1   
    41    30    17 1   
    42    17    44 1   
    43    18    45 1   
    44    18    46 1   
    45    18    47 1   
    46    22    19 1   
    47    19    48 1   
    48    19    49 1   
    49    19    50 1   
    50    20    22 1   
    51    20    51 1   
    52    20    52 1   
    53    20    53 1   
    54    21    22 1   
    55    21    54 1   
    56    21    55 1   
    57    21    56 1   
    58    32    22 1   
    59    26    25 1   
    60    28    57 1   
    61    28    58 1   
    62    29    59 1   
    63    29    60 1   
    64    30    61 1   
    65    25    62 1   
@<TRIPOS>SUBSTRUCTURE
     1 3Q6         1 TEMP              0 ****  ****    0 ROOT
