@<TRIPOS>MOLECULE
3Q8
   81    84     1     0     0
SMALL
bcc


@<TRIPOS>ATOM
      1 CMB          0.0000     0.0000     0.0000 c3         1 3Q8       0.080100
      2 C2B          1.5070     0.0000     0.0000 cc         1 3Q8      -0.215800
      3 C3B          2.3080     0.0000     1.0760 cd         1 3Q8      -0.236400
      4 CAB          1.8860    -0.0010     2.5230 c3         1 3Q8       0.060800
      5 CBB          1.8650    -1.4370     3.0470 c3         1 3Q8       0.006900
      6 C4B          3.7040     0.0010     0.5440 c          1 3Q8       0.713700
      7 O_B          4.7180     0.0010     1.2030 o          1 3Q8      -0.503100
      8 N_B          3.6330     0.0010    -0.8000 nd         1 3Q8      -0.554100
      9 C1B          2.3900    -0.0040    -1.1870 cc         1 3Q8       0.500600
     10 CHB          1.9240    -0.0120    -2.6200 c3         1 3Q8       0.062600
     11 C4A          3.1200    -0.0160    -3.5370 cc         1 3Q8      -0.366600
     12 N_A          3.6980     1.0830    -4.1010 na         1 3Q8       0.432900
     13 C3A          3.8050    -1.1060    -3.9370 cd         1 3Q8      -0.139300
     14 CMA          3.5150    -2.5330    -3.5520 c3         1 3Q8       0.096200
     15 C2A          4.8420    -0.6650    -4.7840 cd         1 3Q8      -0.142300
     16 CAA          5.8650    -1.5330    -5.4690 c3         1 3Q8       0.073900
     17 CBA          5.3350    -1.9590    -6.8400 c3         1 3Q8      -0.155400
     18 CGA          6.3590    -2.8280    -7.5250 c          1 3Q8       0.974600
     19 O1A          6.1090    -3.3220    -8.7490 o          1 3Q8      -0.913300
     20 O2A          7.4030    -3.0810    -6.9730 o          1 3Q8      -0.913300
     21 C1A          4.7520     0.6790    -4.8660 cc         1 3Q8      -0.302600
     22 CHA          5.6620     1.5780    -5.6620 c3         1 3Q8       0.175200
     23 C4D          5.1700     1.6580    -7.0850 cc         1 3Q8      -0.319600
     24 N_D          5.6020     0.8880    -8.1240 na         1 3Q8       0.431900
     25 C3D          4.2230     2.4980    -7.5470 cd         1 3Q8      -0.139300
     26 CAD          3.4670     3.5220    -6.7400 c3         1 3Q8       0.077900
     27 CBD          4.2260     4.8500    -6.7630 c3         1 3Q8      -0.135400
     28 CGD          3.4710     5.8750    -5.9560 c          1 3Q8       0.982600
     29 O1D          3.9530     7.1220    -5.8360 o          1 3Q8      -0.918800
     30 O2D          2.4320     5.5730    -5.4180 o          1 3Q8      -0.918800
     31 C2D          4.0680     2.2420    -8.9240 cd         1 3Q8      -0.151300
     32 CMD          3.1170     2.9430    -9.8600 c3         1 3Q8       0.102200
     33 C1D          4.9200     1.2490    -9.2480 cc         1 3Q8      -0.335600
     34 CHD          5.0950     0.6470   -10.6180 c3         1 3Q8       0.040600
     35 C4C          6.0630     1.4830   -11.4160 ce         1 3Q8       0.520600
     36 N_C          6.6460     2.5580   -10.9650 nf         1 3Q8      -0.554100
     37 C1C          7.4650     3.1420   -11.8420 c          1 3Q8       0.719500
     38 O_C          8.1200     4.1480   -11.6610 o          1 3Q8      -0.547100
     39 C2C          7.4240     2.3080   -13.1090 c3         1 3Q8      -0.144500
     40 CMC          8.8060     1.7350   -13.4260 c3         1 3Q8       0.018900
     41 C3C          6.4560     1.1950   -12.7460 ce         1 3Q8      -0.276800
     42 CAC          6.0590     0.1740   -13.5150 c2         1 3Q8      -0.064200
     43 CBC          6.5850     0.0390   -14.9210 c3         1 3Q8       0.037100
     44 H1          -0.3610    -0.9960     0.2240 hc         1 3Q8       0.010700
     45 H2          -0.3610     0.6920     0.7510 hc         1 3Q8       0.010700
     46 H3          -0.3610     0.3040    -0.9750 hc         1 3Q8       0.010700
     47 H4           2.5880     0.5850     3.1040 hc         1 3Q8       0.016200
     48 H5           0.8960     0.4300     2.6110 hc         1 3Q8       0.016200
     49 H6           1.3230    -2.0670     2.3520 hc         1 3Q8       0.002033
     50 H7           2.8810    -1.8000     3.1470 hc         1 3Q8       0.002033
     51 H8           1.3760    -1.4620     4.0130 hc         1 3Q8       0.002033
     52 H9           1.3270    -0.8970    -2.8010 hc         1 3Q8       0.031700
     53 H10          1.3260     0.8720    -2.8100 hc         1 3Q8       0.031700
     54 H11          3.3970     2.0290    -3.9760 hn         1 3Q8       0.123700
     55 H12          3.9410    -2.7370    -2.5760 hc         1 3Q8      -0.003633
     56 H13          3.9530    -3.2010    -4.2830 hc         1 3Q8      -0.003633
     57 H14          2.4440    -2.6870    -3.5180 hc         1 3Q8      -0.003633
     58 H15          6.7850    -0.9770    -5.5950 hc         1 3Q8       0.019700
     59 H16          6.0540    -2.4130    -4.8660 hc         1 3Q8       0.019700
     60 H17          5.1460    -1.0790    -7.4440 hc         1 3Q8       0.013200
     61 H18          4.4150    -2.5160    -6.7150 hc         1 3Q8       0.013200
     62 H20          6.6680     1.1760    -5.6500 hc         1 3Q8       0.025200
     63 H21          5.6640     2.5690    -5.2250 hc         1 3Q8       0.025200
     64 H22          6.3020     0.1740    -8.0700 hn         1 3Q8       0.137700
     65 H23          2.4810     3.6620    -7.1660 hc         1 3Q8       0.009700
     66 H24          3.3730     3.1780    -5.7170 hc         1 3Q8       0.009700
     67 H25          4.3200     5.1940    -7.7860 hc         1 3Q8       0.013200
     68 H26          5.2120     4.7100    -6.3380 hc         1 3Q8       0.013200
     69 H28          3.5670     3.8650   -10.2080 hc         1 3Q8      -0.006300
     70 H29          2.1950     3.1660    -9.3370 hc         1 3Q8      -0.006300
     71 H30          2.9070     2.3010   -10.7070 hc         1 3Q8      -0.006300
     72 H31          5.4810    -0.3610   -10.5230 hc         1 3Q8       0.044700
     73 H32          4.1380     0.6200   -11.1260 hc         1 3Q8       0.044700
     74 H33          7.0420     2.8910   -13.9380 hc         1 3Q8       0.048700
     75 H34          8.8950     0.7460   -12.9940 hc         1 3Q8       0.008700
     76 H35          8.9340     1.6740   -14.5000 hc         1 3Q8       0.008700
     77 H36          9.5690     2.3810   -13.0080 hc         1 3Q8       0.008700
     78 H37          5.3540    -0.5520   -13.1280 ha         1 3Q8       0.120000
     79 H38          5.9440    -0.6290   -15.4830 hc         1 3Q8       0.008367
     80 H39          6.5980     1.0120   -15.3960 hc         1 3Q8       0.008367
     81 H40          7.5900    -0.3630   -14.8930 hc         1 3Q8       0.008367
@<TRIPOS>BOND
     1     1     2 1
     2     1    44 1
     3     1    45 1
     4     1    46 1
     5     2     3 2
     6     2     9 1
     7     3     4 1
     8     3     6 1
     9     4     5 1
    10     4    47 1
    11     4    48 1
    12     5    49 1
    13     5    50 1
    14     5    51 1
    15     6     7 2
    16     6     8 1
    17     8     9 2
    18     9    10 1
    19    10    11 1
    20    10    52 1
    21    10    53 1
    22    11    12 1
    23    11    13 2
    24    12    21 1
    25    12    54 1
    26    13    14 1
    27    13    15 1
    28    14    55 1
    29    14    56 1
    30    14    57 1
    31    15    16 1
    32    15    21 2
    33    16    17 1
    34    16    58 1
    35    16    59 1
    36    17    18 1
    37    17    60 1
    38    17    61 1
    39    18    19 1
    40    18    20 1
    41    21    22 1
    42    22    23 1
    43    22    62 1
    44    22    63 1
    45    23    24 1
    46    23    25 2
    47    24    33 1
    48    24    64 1
    49    25    26 1
    50    25    31 1
    51    26    27 1
    52    26    65 1
    53    26    66 1
    54    27    28 1
    55    27    67 1
    56    27    68 1
    57    28    29 1
    58    28    30 1
    59    31    32 1
    60    31    33 2
    61    32    69 1
    62    32    70 1
    63    32    71 1
    64    33    34 1
    65    34    35 1
    66    34    72 1
    67    34    73 1
    68    35    36 2
    69    35    41 1
    70    36    37 1
    71    37    38 2
    72    37    39 1
    73    39    40 1
    74    39    41 1
    75    39    74 1
    76    40    75 1
    77    40    76 1
    78    40    77 1
    79    41    42 2
    80    42    43 1
    81    42    78 1
    82    43    79 1
    83    43    80 1
    84    43    81 1
@<TRIPOS>SUBSTRUCTURE
     1 3Q8         1 TEMP              0 ****  ****    0 ROOT
