@<TRIPOS>MOLECULE
molecule
   53    55     1     0     0
SMALL
bcc


@<TRIPOS>ATOM
      1 C5'          0.0000     0.0000     0.0000 c3         1 3QA      -0.063400
      2 C4'          1.5300     0.0000     0.0000 c3         1 3QA      -0.075700
      3 C3'          2.0780     0.0000     1.4450 c3         1 3QA       0.139100
      4 O3'          2.4870    -1.3160     1.8210 oh         1 3QA      -0.592800
      5 C2'          3.2900     0.9490     1.4160 c3         1 3QA       0.123800
      6 C1'          2.0780     1.3280    -0.5780 c3         1 3QA       0.144800
      7 C8           5.8040     3.1940     1.6670 cc         1 3QA      -0.085100
      8 N7           7.1640     3.1000     1.7080 na         1 3QA      -0.162400
      9 C5           7.6410     2.6910     0.4850 ca         1 3QA      -0.295800
     10 C6           8.9130     2.4340    -0.0380 ca         1 3QA       0.705200
     11 N1           9.0140     2.0400    -1.3040 nb         1 3QA      -0.746000
     12 C2           7.9430     1.8900    -2.0640 ca         1 3QA       0.658900
     13 N3           6.7260     2.1190    -1.6190 nb         1 3QA      -0.695000
     14 C4           6.5300     2.5180    -0.3600 ca         1 3QA       0.471100
     15 N1'          3.4320     1.4290     0.0240 n3         1 3QA      -0.682600
     16 C6'         -0.5100    -0.1260    -1.4370 c3         1 3QA       0.024700
     17 S6'         -2.3240    -0.1260    -1.4360 ss         1 3QA      -0.368200
     18 C20         -2.7330    -0.2800    -3.1970 c3         1 3QA       0.018700
     19 C21         -4.2530    -0.2950    -3.3690 c3         1 3QA       0.152400
     20 O22         -4.5750    -0.4170    -4.7550 os         1 3QA      -0.420600
     21 C10          3.9220     2.8120    -0.0080 c3         1 3QA       0.235000
     22 C9           5.3590     2.8480     0.4450 cd         1 3QA      -0.261000
     23 C23         -5.9770    -0.4410    -5.0260 c3         1 3QA       0.144400
     24 C24         -6.2040    -0.5740    -6.5350 c3         1 3QA       0.143400
     25 O25         -5.7110    -1.8380    -6.9800 oh         1 3QA      -0.598800
     26 H1          -0.3610    -0.8370     0.5860 hc         1 3QA       0.055700
     27 H2          -0.3610     0.9260     0.4320 hc         1 3QA       0.055700
     28 H3           1.9190    -0.8460    -0.5540 hc         1 3QA       0.091700
     29 H4           1.3260     0.3750     2.1290 h1         1 3QA       0.033700
     30 H5           2.2580    -1.4710     2.7230 ho         1 3QA       0.399000
     31 H6           3.1160     1.7880     2.0790 h1         1 3QA       0.047700
     32 H7           4.1830     0.4140     1.7140 h1         1 3QA       0.047700
     33 H8           2.1450     1.2730    -1.6580 h1         1 3QA       0.045200
     34 H9           1.4600     2.1620    -0.2680 h1         1 3QA       0.045200
     35 H10          5.1760     3.5010     2.4950 h4         1 3QA       0.169000
     36 H11          7.7310     3.3040     2.5070 hn         1 3QA       0.302700
     37 H12          8.0720     1.5670    -3.0900 h5         1 3QA       0.059100
     38 H14         -0.1500     0.7110    -2.0230 h1         1 3QA       0.061700
     39 H15         -0.1490    -1.0520    -1.8680 h1         1 3QA       0.061700
     40 H16         -2.3160     0.5600    -3.7390 h1         1 3QA       0.069700
     41 H17         -2.3160    -1.2020    -3.5850 h1         1 3QA       0.069700
     42 H18         -4.6690    -1.1360    -2.8260 h1         1 3QA       0.034700
     43 H19         -4.6690     0.6270    -2.9810 h1         1 3QA       0.034700
     44 H20          3.3190     3.4240     0.6530 h1         1 3QA       0.042700
     45 H21          3.8520     3.1960    -1.0190 h1         1 3QA       0.042700
     46 H22         10.5280     3.4620     0.7630 hn         1 3QA       0.437300
     47 H23         10.4010     1.8090     1.2680 hn         1 3QA       0.437300
     48 H24         -6.4300    -1.2840    -4.5180 h1         1 3QA       0.032700
     49 H25         -6.4290     0.4790    -4.6740 h1         1 3QA       0.032700
     50 H26         -7.2630    -0.5040    -6.7480 h1         1 3QA       0.028700
     51 H27         -5.6780     0.2200    -7.0500 h1         1 3QA       0.028700
     52 H28         -5.9060    -1.9460    -7.8970 ho         1 3QA       0.400000
     53 N6          10.0450     2.5860     0.7470 nv         1 3QA      -1.084500
@<TRIPOS>BOND
     1    25    24 1   
     2    24    23 1   
     3    23    20 1   
     4    20    19 1   
     5    19    18 1   
     6    18    17 1   
     7    17    16 1   
     8    16     1 1   
     9     1     2 1   
    10     2     3 1   
    11     2     6 1   
    12     3     4 1   
    13     3     5 1   
    14     6    15 1   
    15     5    15 1   
    16    15    21 1   
    17    12    13 ar  
    18    12    11 ar  
    19    13    14 ar  
    20    11    10 ar  
    21    14    22 1   
    22    14     9 ar  
    23    21    22 1   
    24    10     9 ar  
    25    10    53 1   
    26    22     7 2   
    27     9     8 1   
    28     7     8 1   
    29     1    26 1   
    30     1    27 1   
    31     2    28 1   
    32     3    29 1   
    33     4    30 1   
    34     5    31 1   
    35     5    32 1   
    36     6    33 1   
    37     6    34 1   
    38     7    35 1   
    39     8    36 1   
    40    12    37 1   
    41    16    38 1   
    42    16    39 1   
    43    18    40 1   
    44    18    41 1   
    45    19    42 1   
    46    19    43 1   
    47    21    44 1   
    48    21    45 1   
    49    53    46 1   
    50    53    47 1   
    51    23    48 1   
    52    23    49 1   
    53    24    50 1   
    54    24    51 1   
    55    25    52 1   
@<TRIPOS>SUBSTRUCTURE
     1 3QA         1 TEMP              0 ****  ****    0 ROOT
