@<TRIPOS>MOLECULE
3QA
   53    55     1     0     0
SMALL
bcc


@<TRIPOS>ATOM
      1 C5'          0.0000     0.0000     0.0000 c3         1 3QA      -0.002400
      2 C4'          1.5300     0.0000     0.0000 c3         1 3QA      -0.066700
      3 C3'          2.0780     0.0000     1.4450 c3         1 3QA       0.185100
      4 O3'          2.4870    -1.3160     1.8210 oh         1 3QA      -0.572800
      5 C2'          3.2900     0.9490     1.4160 c3         1 3QA       0.114800
      6 C1'          2.0780     1.3280    -0.5780 c3         1 3QA       0.147800
      7 C8           5.8040     3.1940     1.6670 cc         1 3QA      -0.263100
      8 N7           7.1640     3.1000     1.7080 na         1 3QA       0.393600
      9 C5           7.6410     2.6910     0.4850 ca         1 3QA      -0.475800
     10 C6           8.9130     2.4340    -0.0380 ca         1 3QA       0.533200
     11 N1           9.0140     2.0400    -1.3040 nb         1 3QA      -0.627000
     12 C2           7.9430     1.8900    -2.0640 ca         1 3QA       0.592900
     13 N3           6.7260     2.1190    -1.6190 nb         1 3QA      -0.560000
     14 C4           6.5300     2.5180    -0.3600 ca         1 3QA       0.419100
     15 N1'          3.4320     1.4290     0.0240 n3         1 3QA      -0.520600
     16 C6'         -0.5100    -0.1260    -1.4370 c3         1 3QA       0.087700
     17 S6'         -2.3240    -0.1260    -1.4360 ss         1 3QA      -0.414200
     18 C20         -2.7330    -0.2800    -3.1970 c3         1 3QA       0.077700
     19 C21         -4.2530    -0.2950    -3.3690 c3         1 3QA       0.230400
     20 O22         -4.5750    -0.4170    -4.7550 os         1 3QA      -0.407600
     21 C10          3.9220     2.8120    -0.0080 c3         1 3QA       0.251000
     22 C9           5.3590     2.8480     0.4450 cd         1 3QA      -0.261000
     23 C23         -5.9770    -0.4410    -5.0260 c3         1 3QA       0.209400
     24 C24         -6.2040    -0.5740    -6.5350 c3         1 3QA       0.221400
     25 O25         -5.7110    -1.8380    -6.9800 oh         1 3QA      -0.582800
     26 H1          -0.3610    -0.8370     0.5860 hc         1 3QA       0.028700
     27 H2          -0.3610     0.9260     0.4320 hc         1 3QA       0.028700
     28 H3           1.9190    -0.8460    -0.5540 hc         1 3QA       0.063700
     29 H4           1.3260     0.3750     2.1290 h1         1 3QA       0.002700
     30 H5           2.2580    -1.4710     2.7230 ho         1 3QA       0.385000
     31 H6           3.1160     1.7880     2.0790 h1         1 3QA       0.020700
     32 H7           4.1830     0.4140     1.7140 h1         1 3QA       0.020700
     33 H8           2.1450     1.2730    -1.6580 h1         1 3QA       0.017700
     34 H9           1.4600     2.1620    -0.2680 h1         1 3QA       0.017700
     35 H10          5.1760     3.5010     2.4950 h4         1 3QA       0.143000
     36 H11          7.7310     3.3040     2.5070 hn         1 3QA       0.116700
     37 H12          8.0720     1.5670    -3.0900 h5         1 3QA      -0.001900
     38 H14         -0.1500     0.7110    -2.0230 h1         1 3QA       0.038700
     39 H15         -0.1490    -1.0520    -1.8680 h1         1 3QA       0.038700
     40 H16         -2.3160     0.5600    -3.7390 h1         1 3QA       0.043200
     41 H17         -2.3160    -1.2020    -3.5850 h1         1 3QA       0.043200
     42 H18         -4.6690    -1.1360    -2.8260 h1         1 3QA       0.002200
     43 H19         -4.6690     0.6270    -2.9810 h1         1 3QA       0.002200
     44 H20          3.3190     3.4240     0.6530 h1         1 3QA       0.011700
     45 H21          3.8520     3.1960    -1.0190 h1         1 3QA       0.011700
     46 H22         10.5280     3.4620     0.7630 hn         1 3QA       0.276300
     47 H23         10.4010     1.8090     1.2680 hn         1 3QA       0.276300
     48 H24         -6.4300    -1.2840    -4.5180 h1         1 3QA      -0.003800
     49 H25         -6.4290     0.4790    -4.6740 h1         1 3QA      -0.003800
     50 H26         -7.2630    -0.5040    -6.7480 h1         1 3QA      -0.009800
     51 H27         -5.6780     0.2200    -7.0500 h1         1 3QA      -0.009800
     52 H28         -5.9060    -1.9460    -7.8970 ho         1 3QA       0.387000
     53 N6          10.0450     2.5860     0.7470 nv         1 3QA      -0.658500
@<TRIPOS>BOND
     1     1     2 1   
     2     1    16 1   
     3     1    26 1   
     4     1    27 1   
     5     2     3 1   
     6     2     6 1   
     7     2    28 1   
     8     3     4 1   
     9     3     5 1   
    10     3    29 1   
    11     4    30 1   
    12     5    15 1   
    13     5    31 1   
    14     5    32 1   
    15     6    15 1   
    16     6    33 1   
    17     6    34 1   
    18     7     8 1   
    19     7    22 2   
    20     7    35 1   
    21     8     9 1   
    22     8    36 1   
    23     9    10 ar  
    24     9    14 ar  
    25    10    11 ar  
    26    10    53 1   
    27    11    12 ar  
    28    12    13 ar  
    29    12    37 1   
    30    13    14 ar  
    31    14    22 1   
    32    15    21 1   
    33    16    17 1   
    34    16    38 1   
    35    16    39 1   
    36    17    18 1   
    37    18    19 1   
    38    18    40 1   
    39    18    41 1   
    40    19    20 1   
    41    19    42 1   
    42    19    43 1   
    43    20    23 1   
    44    21    22 1   
    45    21    44 1   
    46    21    45 1   
    47    23    24 1   
    48    23    48 1   
    49    23    49 1   
    50    24    25 1   
    51    24    50 1   
    52    24    51 1   
    53    25    52 1   
    54    46    53 1   
    55    47    53 1   
@<TRIPOS>SUBSTRUCTURE
     1 3QA         1 TEMP              0 ****  ****    0 ROOT
