@<TRIPOS>MOLECULE
3QB
   61    62     1     0     0
SMALL
bcc


@<TRIPOS>ATOM
      1 C4           0.0000     0.0000     0.0000 c3         1 3QB       0.139100
      2 C14          0.6470     3.0170    -6.5170 c3         1 3QB       0.144800
      3 C5          -0.0770    -1.1660     2.0940 c3         1 3QB       0.270200
      4 C6          -2.4760     0.0570     2.9950 c3         1 3QB       0.112000
      5 C11          0.5610     2.2880    -4.2680 c3         1 3QB       0.053500
      6 C7          -0.5100    -0.0600    -1.4420 c3         1 3QB       0.013700
      7 C8          -2.0390    -0.0910    -1.4410 c3         1 3QB       0.170100
      8 C9          -2.5760     1.2330    -0.8950 c3         1 3QB      -0.041100
      9 C12         -0.6020     3.2780    -4.4600 c3         1 3QB      -0.026400
     10 C13         -0.7460     3.4410    -5.9900 c3         1 3QB      -0.050700
     11 N1          -0.0450     1.1200    -2.1740 ns         1 3QB      -0.204900
     12 N2           1.0220     1.8950    -5.6180 n3         1 3QB      -0.497600
     13 C3           1.5320     0.0000     0.0000 c3         1 3QB       0.151100
     14 C18         -1.4720     6.4840    -8.2360 c3         1 3QB       0.006900
     15 C16         -1.0410     4.8980    -6.3540 c3         1 3QB      -0.023400
     16 C15          2.4740     1.6710    -5.6340 c3         1 3QB       0.182100
     17 O8          -2.5120    -0.2840    -2.7760 oh         1 3QB      -0.560800
     18 O5          -0.4750    -1.1370     0.7220 os         1 3QB      -0.371600
     19 O7           2.0080    -1.1690    -0.6710 oh         1 3QB      -0.567800
     20 C2           2.0340     0.0000     1.4480 c3         1 3QB       0.140100
     21 O6           3.4600    -0.0750     1.4580 oh         1 3QB      -0.582800
     22 C1           1.4510    -1.2140     2.1790 c3         1 3QB       0.162100
     23 O4           1.8540    -1.1840     3.5490 oh         1 3QB      -0.567800
     24 S1          -0.6830     0.3240     2.9310 ss         1 3QB      -0.421200
     25 H1          -0.3590     0.9040     0.4770 h1         1 3QB       0.052700
     26 H2           0.5790     2.6750    -7.5430 h1         1 3QB       0.017200
     27 H3           1.3540     3.8320    -6.4240 h1         1 3QB       0.017200
     28 H4          -0.4910    -2.0470     2.5690 h2         1 3QB       0.062700
     29 H5          -2.7600    -0.2440     3.9970 h1         1 3QB       0.035367
     30 H6          -2.9880     0.9750     2.7350 h1         1 3QB       0.035367
     31 H7          -2.7500    -0.7210     2.2930 h1         1 3QB       0.035367
     32 H8           1.3680     2.7700    -3.7300 h1         1 3QB       0.015700
     33 H9          -0.1310    -0.9550    -1.9210 h1         1 3QB       0.089700
     34 H10         -2.3840    -0.9050    -0.8150 h1         1 3QB       0.014700
     35 H11         -1.9610     2.0490    -1.2560 hc         1 3QB       0.011033
     36 H12         -2.5510     1.2140     0.1880 hc         1 3QB       0.011033
     37 H13         -3.5960     1.3750    -1.2310 hc         1 3QB       0.011033
     38 H14         -1.5140     2.8700    -4.0390 hc         1 3QB       0.024200
     39 H15         -0.3630     4.2300    -4.0020 hc         1 3QB       0.024200
     40 H16         -1.5150     2.7810    -6.3730 hc         1 3QB       0.051700
     41 H17          0.1590     1.9670    -1.6810 hn         1 3QB       0.167500
     42 H19          1.8920     0.8870    -0.5070 h1         1 3QB       0.012700
     43 H20         -2.3670     6.8100    -7.7220 hc         1 3QB       0.000033
     44 H21         -0.6370     7.1070    -7.9380 hc         1 3QB       0.000033
     45 H22         -1.6190     6.5660    -9.3060 hc         1 3QB       0.000033
     46 H23         -0.2530     4.7160    -8.3460 hc         1 3QB       0.016200
     47 H24         -1.9880     4.3970    -8.2180 hc         1 3QB       0.016200
     48 H25         -1.9650     5.2080    -5.8810 hc         1 3QB       0.015200
     49 H26         -0.2300     5.5270    -6.0090 hc         1 3QB       0.015200
     50 H27          2.8090     1.5480    -6.6570 h1         1 3QB       0.001367
     51 H28          2.7080     0.7770    -5.0670 h1         1 3QB       0.001367
     52 H29          2.9760     2.5220    -5.1900 h1         1 3QB       0.001367
     53 H30         -3.1860    -0.9430    -2.7780 ho         1 3QB       0.386000
     54 H31          2.8960    -1.0290    -0.9540 ho         1 3QB       0.401000
     55 H32          1.7100     0.9080     1.9420 h1         1 3QB       0.035700
     56 H33          3.8060     0.5870     2.0340 ho         1 3QB       0.400000
     57 H34          1.8090    -2.1230     1.7110 h1         1 3QB       0.044700
     58 H35          2.1720    -2.0350     3.8020 ho         1 3QB       0.394000
     59 C10          0.0840     1.0740    -3.5150 c          1 3QB       0.570100
     60 C17         -1.1770     5.0270    -7.8730 c3         1 3QB      -0.032400
     61 O9          -0.1850     0.0540    -4.1150 o          1 3QB      -0.583100
@<TRIPOS>BOND
     1     1     6 1   
     2     1    13 1   
     3     1    18 1   
     4     1    25 1   
     5     2    10 1   
     6     2    12 1   
     7     2    26 1   
     8     2    27 1   
     9     3    18 1   
    10     3    22 1   
    11     3    24 1   
    12     3    28 1   
    13     4    24 1   
    14     4    29 1   
    15     4    30 1   
    16     4    31 1   
    17     5     9 1   
    18     5    12 1   
    19     5    32 1   
    20     5    59 1   
    21     6     7 1   
    22     6    11 1   
    23     6    33 1   
    24     7     8 1   
    25     7    17 1   
    26     7    34 1   
    27     8    35 1   
    28     8    36 1   
    29     8    37 1   
    30     9    10 1   
    31     9    38 1   
    32     9    39 1   
    33    10    15 1   
    34    10    40 1   
    35    11    41 1   
    36    11    59 1   
    37    12    16 1   
    38    13    19 1   
    39    13    20 1   
    40    13    42 1   
    41    14    43 1   
    42    14    44 1   
    43    14    45 1   
    44    14    60 1   
    45    15    48 1   
    46    15    49 1   
    47    15    60 1   
    48    16    50 1   
    49    16    51 1   
    50    16    52 1   
    51    17    53 1   
    52    19    54 1   
    53    20    21 1   
    54    20    22 1   
    55    20    55 1   
    56    21    56 1   
    57    22    23 1   
    58    22    57 1   
    59    23    58 1   
    60    46    60 1   
    61    47    60 1   
    62    59    61 2   
@<TRIPOS>SUBSTRUCTURE
     1 3QB         1 TEMP              0 ****  ****    0 ROOT
