@<TRIPOS>MOLECULE
molecule
   48    50     1     0     0
SMALL
bcc


@<TRIPOS>ATOM
      1 C1           0.0000     0.0000     0.0000 ca         1 3QC      -0.094300
      2 C2           1.5040     0.0000     0.0000 c3         1 3QC       0.161300
      3 C11         -2.1240    -0.2370     1.0700 ca         1 3QC      -0.120000
      4 C12         -2.7660    -0.0150    -0.1300 ca         1 3QC      -0.121000
      5 C13         -2.0260     0.2200    -1.2740 ca         1 3QC      -0.080300
      6 C14         -0.6470     0.2280    -1.2070 ca         1 3QC      -0.083300
      7 C19         -1.4900    -1.2470     4.4180 ca         1 3QC      -0.142000
      8 C20         -2.2040    -2.2320     5.0840 ca         1 3QC       0.108100
      9 C21         -2.2940    -3.5070     4.5430 ca         1 3QC      -0.167000
     10 C22         -1.6740    -3.7910     3.3410 ca         1 3QC      -0.112000
     11 O28         -2.8130    -1.9500     6.2660 oh         1 3QC      -0.520100
     12 C33          0.1600     0.4860    -2.4520 c3         1 3QC      -0.052800
     13 N3           2.0040     0.0000     1.3800 n          1 3QC      -0.538800
     14 C4           1.3500    -0.9100     2.3350 c3         1 3QC       0.142000
     15 C5          -0.1030    -0.4640     2.4870 c3         1 3QC       0.001900
     16 C6          -0.7360    -0.2260     1.1410 ca         1 3QC      -0.060300
     17 C17         -0.8760    -1.5360     3.2140 ca         1 3QC      -0.068300
     18 C23         -0.9670    -2.8060     2.6770 ca         1 3QC      -0.133000
     19 C29         -2.7200     0.4680    -2.5880 c3         1 3QC      -0.045800
     20 C38          3.0170     0.8040     1.7580 c          1 3QC       0.800100
     21 N39          4.0750     0.9830     0.9430 n          1 3QC      -0.511800
     22 C40          5.1100     1.9610     1.2910 c3         1 3QC       0.104800
     23 C44          4.1920     0.2010    -0.2900 c3         1 3QC       0.104800
     24 O48          2.9760     1.3670     2.8350 o          1 3QC      -0.636100
     25 H21A         1.8520     0.8990    -0.4950 h1         1 3QC       0.054200
     26 H22A         1.8520    -0.8990    -0.4950 h1         1 3QC       0.054200
     27 H11         -2.7060    -0.4210     1.9650 ha         1 3QC       0.142000
     28 H12         -3.8480    -0.0220    -0.1760 ha         1 3QC       0.132000
     29 H21         -2.8500    -4.2780     5.0620 ha         1 3QC       0.137000
     30 H22         -1.7440    -4.7860     2.9180 ha         1 3QC       0.133000
     31 H28         -2.3300    -2.3490     6.9710 ho         1 3QC       0.420000
     32 H331         0.9010    -0.2960    -2.5700 hc         1 3QC       0.043367
     33 H332        -0.4970     0.4930    -3.3130 hc         1 3QC       0.043367
     34 H333         0.6560     1.4450    -2.3680 hc         1 3QC       0.043367
     35 H41          1.3720    -1.9170     1.9370 h1         1 3QC       0.061200
     36 H42          1.8460    -0.8320     3.2940 h1         1 3QC       0.061200
     37 H5          -0.1340     0.4540     3.0610 hc         1 3QC       0.087700
     38 H23         -0.4830    -3.0300     1.7340 ha         1 3QC       0.136000
     39 H291        -3.7930     0.4560    -2.4370 hc         1 3QC       0.043033
     40 H292        -2.4460    -0.3070    -3.2930 hc         1 3QC       0.043033
     41 H293        -2.4210     1.4340    -2.9780 hc         1 3QC       0.043033
     42 H401         5.6840     1.5950     2.1330 h1         1 3QC       0.040033
     43 H402         4.6430     2.9020     1.5550 h1         1 3QC       0.040033
     44 H403         5.7670     2.1090     0.4430 h1         1 3QC       0.040033
     45 H441         3.6420     0.6930    -1.0830 h1         1 3QC       0.040033
     46 H442         3.7850    -0.7900    -0.1290 h1         1 3QC       0.040033
     47 H443         5.2360     0.1220    -0.5700 h1         1 3QC       0.040033
     48 H19         -1.4180    -0.2510     4.8380 ha         1 3QC       0.148000
@<TRIPOS>BOND
     1     1     2 1
     2     1     6 ar
     3     1    16 ar
     4     2    13 1
     5     2    25 1
     6     2    26 1
     7     3     4 ar
     8     3    16 ar
     9     3    27 1
    10     4     5 ar
    11     4    28 1
    12     5     6 ar
    13     5    19 1
    14     6    12 1
    15     7     8 ar
    16     7    17 ar
    17     7    48 1
    18     8     9 ar
    19     8    11 1
    20     9    10 ar
    21     9    29 1
    22    10    18 ar
    23    10    30 1
    24    11    31 1
    25    12    32 1
    26    12    33 1
    27    12    34 1
    28    13    14 1
    29    13    20 1
    30    14    15 1
    31    14    35 1
    32    14    36 1
    33    15    16 1
    34    15    17 1
    35    15    37 1
    36    17    18 ar
    37    18    38 1
    38    19    39 1
    39    19    40 1
    40    19    41 1
    41    20    21 1
    42    20    24 2
    43    21    22 1
    44    21    23 1
    45    22    42 1
    46    22    43 1
    47    22    44 1
    48    23    45 1
    49    23    46 1
    50    23    47 1
@<TRIPOS>SUBSTRUCTURE
     1 3QC         1 TEMP              0 ****  ****    0 ROOT
