@<TRIPOS>MOLECULE
molecule
   56    57     1     0     0
SMALL
bcc


@<TRIPOS>ATOM
      1 OAF          0.0000     0.0000     0.0000 o          1 3QF      -0.815167
      2 PBE          1.6100     0.0000     0.0000 p5         1 3QF       1.068700
      3 OAG          2.1470     0.0000     1.5180 o          1 3QF      -0.815167
      4 OAC          2.1030     1.2080    -0.6980 o          1 3QF      -0.815167
      5 CAS          2.2170    -1.4890    -0.8600 c3         1 3QF      -0.262600
      6 CAP          3.7420    -1.4280    -0.9700 c3         1 3QF       0.188800
      7 NBB          4.2310    -2.6270    -1.6630 n3         1 3QF      -0.719600
      8 CAL          3.7800    -2.6490    -3.0600 c3         1 3QF       0.046800
      9 CAK          3.8560    -4.0570    -3.5910 c          1 3QF       0.589900
     10 OAE          2.8580    -4.6060    -3.9920 o          1 3QF      -0.563100
     11 CAM          5.6950    -2.7230    -1.5800 c3         1 3QF       0.154800
     12 CAN          6.0970    -3.1940    -0.1810 c3         1 3QF       0.167800
     13 NBC          7.5610    -3.2640    -0.0900 n3         1 3QF      -0.745600
     14 CAQ          7.9790    -4.1390     1.0140 c3         1 3QF       0.185800
     15 CAT          7.7920    -5.6010     0.6040 c3         1 3QF      -0.257600
     16 PBF          8.2010    -6.6830     2.0130 p5         1 3QF       1.067700
     17 OAH          7.1450    -6.4370     3.2030 o          1 3QF      -0.819833
     18 OAI          8.1310    -8.2230     1.5450 o          1 3QF      -0.819833
     19 OAD          9.5670    -6.3750     2.4930 o          1 3QF      -0.819833
     20 CAO          8.1450    -1.9240     0.0510 c3         1 3QF       0.140800
     21 CAR          9.6650    -2.0090    -0.1080 c3         1 3QF       0.030300
     22 N9          10.2470    -0.6730     0.0320 na         1 3QF      -0.173900
     23 C4          10.5890    -0.0590     1.2060 cc         1 3QF       0.099800
     24 N3          10.5270    -0.4090     2.4960 nc         1 3QF      -0.597100
     25 C2          10.9390     0.4040     3.4420 cd         1 3QF       0.247800
     26 N2          10.8560     0.0000     4.7520 nz         1 3QF      -0.668600
     27 N1          11.4490     1.6370     3.1610 ns         1 3QF      -0.477400
     28 C6          11.5430     2.0610     1.8820 c          1 3QF       0.662000
     29 O6          11.9970     3.1620     1.6200 o          1 3QF      -0.664500
     30 C5          11.1020     1.1960     0.8530 cd         1 3QF       0.170800
     31 N7          11.0490     1.2860    -0.4980 nd         1 3QF      -0.649000
     32 C8          10.5510     0.1860    -0.9840 cc         1 3QF       0.413400
     33 H3           1.7850    -1.5340    -1.8520 hc         1 3QF       0.040700
     34 H4           1.9310    -2.3710    -0.3000 hc         1 3QF       0.040700
     35 H5           4.0280    -0.5460    -1.5300 h1         1 3QF       0.044700
     36 H6           4.1740    -1.3820     0.0220 h1         1 3QF       0.044700
     37 H8           2.7570    -2.2960    -3.1150 h1         1 3QF       0.054200
     38 H9           4.4170    -2.0040    -3.6550 h1         1 3QF       0.054200
     39 H10          4.8120    -4.5610    -3.6520 h4         1 3QF      -0.020800
     40 H11          6.0520    -3.4320    -2.3170 h1         1 3QF       0.015200
     41 H12          6.1310    -1.7500    -1.7730 h1         1 3QF       0.015200
     42 H13          5.6760    -4.1750     0.0050 h1         1 3QF       0.063200
     43 H14          5.7220    -2.4950     0.5570 h1         1 3QF       0.063200
     44 H16          9.0220    -3.9590     1.2420 h1         1 3QF       0.037700
     45 H17          7.3760    -3.9290     1.8890 h1         1 3QF       0.037700
     46 H18          8.4470    -5.8300    -0.2280 hc         1 3QF       0.040700
     47 H19          6.7630    -5.7650     0.3100 hc         1 3QF       0.040700
     48 H22          7.9060    -1.5270     1.0300 h1         1 3QF       0.038200
     49 H23          7.7390    -1.2710    -0.7130 h1         1 3QF       0.038200
     50 H24          9.9040    -2.4060    -1.0870 h1         1 3QF       0.081200
     51 H25         10.0710    -2.6610     0.6550 h1         1 3QF       0.081200
     52 H26         10.6310    -0.9750     4.7870 hn         1 3QF       0.425133
     53 H27         11.7340     0.1570     5.2060 hn         1 3QF       0.425133
     54 H28         11.7530     2.2310     3.9070 hn         1 3QF       0.297500
     55 H29         10.4020    -0.0180    -2.0380 h5         1 3QF       0.067100
     56 H231        10.1410     0.5240     5.2170 hn         1 3QF       0.425133
@<TRIPOS>BOND
     1    10     9 2
     2     9     8 1
     3     8     7 1
     4    17    16 1
     5     7    11 1
     6     7     6 1
     7    11    12 1
     8    16    18 1
     9    16    19 1
    10    16    15 1
    11     5     6 1
    12     5     2 1
    13    15    14 1
    14    14    13 1
    15    12    13 1
    16    13    20 1
    17     3     2 1
    18     2     4 1
    19     2     1 1
    20    20    21 1
    21    21    22 1
    22    22    32 1
    23    22    23 1
    24    32    31 2
    25    23    24 1
    26    23    30 2
    27    24    25 2
    28    31    30 1
    29    30    28 1
    30    25    26 1
    31    25    27 1
    32    28    27 1
    33    28    29 2
    34     5    33 1
    35     5    34 1
    36     6    35 1
    37     6    36 1
    38     8    37 1
    39     8    38 1
    40     9    39 1
    41    11    40 1
    42    11    41 1
    43    12    42 1
    44    12    43 1
    45    14    44 1
    46    14    45 1
    47    15    46 1
    48    15    47 1
    49    20    48 1
    50    20    49 1
    51    21    50 1
    52    21    51 1
    53    26    52 1
    54    26    53 1
    55    27    54 1
    56    32    55 1
    57    56    26 1
@<TRIPOS>SUBSTRUCTURE
     1 3QF         1 TEMP              0 ****  ****    0 ROOT
