@<TRIPOS>MOLECULE
molecule
   57    58     1     0     0
SMALL
bcc


@<TRIPOS>ATOM
      1 OAG          0.0000     0.0000     0.0000 o          1 3QG      -0.948667
      2 PBG          1.4800     0.0000     0.0000 p5         1 3QG       1.097700
      3 OAH          2.0170     0.0000     1.5180 o          1 3QG      -0.948667
      4 OAC          2.0170    -1.3130    -0.7590 o          1 3QG      -0.948667
      5 CAU          2.0870     1.4890    -0.8590 c3         1 3QG      -0.261100
      6 CAQ          1.4770     1.5540    -2.2600 c3         1 3QG       0.192300
      7 NBD          1.9650     2.7530    -2.9520 n3         1 3QG      -0.758600
      8 CAR          3.4100     2.6640    -3.2040 c3         1 3QG       0.192300
      9 CAV          3.9570     4.0530    -3.5400 c3         1 3QG      -0.261100
     10 PBH          5.7440     3.9380    -3.8770 p5         1 3QG       1.097700
     11 OAI          6.2930     5.3730    -4.3590 o          1 3QG      -0.948667
     12 OAJ          6.5150     3.4910    -2.5370 o          1 3QG      -0.948667
     13 OAD          5.9830     2.9370    -4.9410 o          1 3QG      -0.948667
     14 CAN          1.2270     2.9780    -4.2020 c3         1 3QG       0.165800
     15 CAM         -0.1600     3.5410    -3.8810 c3         1 3QG       0.149800
     16 NBC         -0.8550     3.8720    -5.1310 n3         1 3QG      -0.734600
     17 CAP         -1.1420     2.6610    -5.9120 c3         1 3QG       0.190800
     18 CAT         -1.4910     3.0520    -7.3500 c3         1 3QG      -0.251600
     19 PBF         -1.9630     1.5610    -8.2850 p5         1 3QG       1.073700
     20 OAE         -0.8810     0.5560    -8.1930 o          1 3QG      -0.931833
     21 OAF         -3.3190     0.9480    -7.6700 o          1 3QG      -0.931833
     22 OAB         -2.2030     1.9500    -9.8290 o          1 3QG      -0.931833
     23 CAO         -2.0850     4.6310    -4.8640 c3         1 3QG       0.148800
     24 CAS         -1.7270     6.0750    -4.5070 c3         1 3QG       0.004300
     25 N9          -2.9440     6.8030    -4.1400 na         1 3QG      -0.151900
     26 C4          -3.5240     6.8300    -2.9090 cc         1 3QG       0.015000
     27 N3          -3.2400     6.2680    -1.6950 na         1 3QG      -0.648600
     28 C2          -4.0320     6.4930    -0.6320 cd         1 3QG       0.704100
     29 N1          -5.0970     7.2440    -0.6860 nc         1 3QG      -0.780100
     30 C6          -5.4720     7.8480    -1.8310 c          1 3QG       0.651000
     31 O6          -6.4690     8.5490    -1.8700 o          1 3QG      -0.620100
     32 C5          -4.6490     7.6420    -3.0250 cd         1 3QG       0.179800
     33 N7          -4.7090     8.0710    -4.3060 nd         1 3QG      -0.682000
     34 C8          -3.6990     7.5800    -4.9680 cc         1 3QG       0.413400
     35 H3           3.1670     1.4450    -0.9370 hc         1 3QG       0.019950
     36 H4           1.8010     2.3710    -0.2990 hc         1 3QG       0.019950
     37 H5           1.7630     0.6720    -2.8200 h1         1 3QG       0.038700
     38 H6           0.3970     1.5970    -2.1820 h1         1 3QG       0.038700
     39 H8           3.9080     2.2850    -2.3200 h1         1 3QG       0.038700
     40 H9           3.5910     1.9940    -4.0360 h1         1 3QG       0.038700
     41 H10          3.4480     4.4390    -4.4160 hc         1 3QG       0.019950
     42 H11          3.7890     4.7200    -2.7030 hc         1 3QG       0.019950
     43 H14          1.1210     2.0390    -4.7320 h1         1 3QG       0.044200
     44 H15          1.7690     3.6830    -4.8200 h1         1 3QG       0.044200
     45 H16         -0.7320     2.8010    -3.3350 h1         1 3QG       0.015700
     46 H17         -0.0560     4.4350    -3.2780 h1         1 3QG       0.015700
     47 H19         -0.2710     2.0180    -5.9130 h1         1 3QG       0.065200
     48 H20         -1.9790     2.1350    -5.4680 h1         1 3QG       0.065200
     49 H21         -0.6300     3.5140    -7.8170 hc         1 3QG       0.011700
     50 H22         -2.3170     3.7520    -7.3440 hc         1 3QG       0.011700
     51 H25         -2.6180     4.1760    -4.0380 h1         1 3QG       0.036700
     52 H26         -2.7130     4.6220    -5.7470 h1         1 3QG       0.036700
     53 H27         -1.0370     6.0800    -3.6720 h1         1 3QG       0.081200
     54 H28         -1.2630     6.5540    -5.3610 h1         1 3QG       0.081200
     55 H29         -2.4340     5.6820    -1.5970 hn         1 3QG       0.484800
     56 H30         -3.7730     6.0290     0.3130 h5         1 3QG       0.060800
     57 H31         -3.4910     7.7630    -6.0150 h5         1 3QG       0.073100
@<TRIPOS>BOND
     1    31    30 2   
     2    29    30 1   
     3    29    28 2   
     4    30    32 1   
     5    28    27 1   
     6    32    33 1   
     7    32    26 2   
     8    33    34 2   
     9    27    26 1   
    10    26    25 1   
    11    34    25 1   
    12    25    24 1   
    13    24    23 1   
    14    23    16 1   
    15    13    10 1   
    16    12    10 1   
    17    20    19 1   
    18    18    19 1   
    19    18    17 1   
    20    10    11 1   
    21    10     9 1   
    22    16    15 1   
    23    16    17 1   
    24    15    14 1   
    25    19    21 1   
    26    19    22 1   
    27     8     9 1   
    28     8     7 1   
    29    14     7 1   
    30     7     6 1   
    31     5     6 1   
    32     5     2 1   
    33     1     2 1   
    34     2     4 1   
    35     2     3 1   
    36     5    35 1   
    37     5    36 1   
    38     6    37 1   
    39     6    38 1   
    40     8    39 1   
    41     8    40 1   
    42     9    41 1   
    43     9    42 1   
    44    14    43 1   
    45    14    44 1   
    46    15    45 1   
    47    15    46 1   
    48    17    47 1   
    49    17    48 1   
    50    18    49 1   
    51    18    50 1   
    52    23    51 1   
    53    23    52 1   
    54    24    53 1   
    55    24    54 1   
    56    27    55 1   
    57    28    56 1   
    58    34    57 1   
@<TRIPOS>SUBSTRUCTURE
     1 3QG         1 TEMP              0 ****  ****    0 ROOT
