@<TRIPOS>MOLECULE
3QG
   59    58     1     0     0
SMALL
bcc


@<TRIPOS>ATOM
      1 OAG        93.3650   98.5340 -105.1720 oh        1 3QG     -0.832000
      2 PBG        94.1290   97.2700 -104.4370 p5        1 3QG      1.986500
      3 OAH        93.8320   97.5550 -103.0110 o         1 3QG     -0.872500
      4 OAC        95.5100   97.1960 -104.9670 o         1 3QG     -0.872500
      5 CAU        93.2320   95.9420 -105.0170 c3        1 3QG     -0.845000
      6 CAQ        91.8820   95.9790 -104.3570 c3        1 3QG     -0.109000
      7 NBD        90.9000   94.9310 -104.8180 n4        1 3QG      0.193000
      8 CAR        91.2500   93.6060 -104.1950 c3        1 3QG     -0.109000
      9 CAV        90.6810   92.4120 -104.9080 c3        1 3QG     -0.845000
     10 PBH        91.0970   91.0250 -104.0150 p5        1 3QG      1.986500
     11 OAI        91.2000   91.3120 -102.5610 o         1 3QG     -0.872500
     12 OAJ        92.1180   90.2430 -104.7510 o         1 3QG     -0.872500
     13 OAD        89.6830   90.1720 -104.0510 oh        1 3QG     -0.832000
     14 CAN        89.5620   95.3320 -104.5580 c2        1 3QG     -0.785000
     15 CAM        88.6330   95.7470 -105.6090 c3        1 3QG      0.095000
     16 NBC        87.7520   94.6850 -106.0970 n3        1 3QG     -0.346000
     17 CAP        18.4740   35.9520  -27.7010 c2        1 3QG     -0.218000
     18 CAT        18.8090   36.1990  -28.9600 c2        1 3QG     -0.218000
     19 PBF     -1124.2620-1294.6000    0.2240 p2        1 3QG      2.361000
     20 OAE     -1125.5320-1294.0250    0.7450 o         1 3QG     -1.120000
     21 OAF     -1123.6910-1295.7840    0.5570 os        1 3QG     -1.120000
     22 OAB     -1123.5630-1293.9910    0.3700 o         1 3QG     -1.120000
     23 CAO        86.8400   95.0310 -107.1480 c3        1 3QG     -0.077000
     24 CAS        87.4400   95.2980 -108.5570 c3        1 3QG     -0.052000
     25 N9         86.4990   95.2040 -109.6290 na        1 3QG     -0.181000
     26 C4         85.8860   96.2420 -110.3530 c2        1 3QG      0.062000
     27 N3         86.1130   97.5940 -110.3240 n2        1 3QG     -0.319000
     28 C2         85.3200   98.2530 -111.2160 c2        1 3QG      0.015000
     29 N1         84.3950   97.8150 -112.0790 n2        1 3QG     -0.379000
     30 C6         84.1380   96.4340 -112.1380 c2        1 3QG      0.327000
     31 O6         83.2810   95.9740 -112.9370 o         1 3QG     -0.458000
     32 C5         84.9190   95.5950 -111.2290 c2        1 3QG     -0.306000
     33 N7         84.9340   94.2150 -111.0130 n2        1 3QG     -0.104000
     34 C8         85.8590   94.0130 -110.0590 c2        1 3QG     -0.153000
     35 H3         93.1410   96.0100 -106.1280 hc        1 3QG      0.117250
     36 H4         93.7760   94.9930 -104.7960 hc        1 3QG      0.117250
     37 H5         92.0120   95.8900 -103.2420 hx        1 3QG      0.125000
     38 H6         91.4140   96.9830 -104.5660 hx        1 3QG      0.125000
     39 H8         90.8750   93.6010 -103.1310 hx        1 3QG      0.125000
     40 H9         92.3720   93.5070 -104.1720 hx        1 3QG      0.125000
     41 H10        91.0800   92.3330 -105.9480 hc        1 3QG      0.117250
     42 H11        89.5690   92.5100 -104.9930 hc        1 3QG      0.117250
     43 H14        89.2280   95.2230 -103.5310 hx        1 3QG      0.137000
     44 H15        89.2820   90.1440 -103.1910 ho        1 3QG      0.217500
     45 H16        87.9480   96.5370 -105.1800 h1        1 3QG      0.026500
     46 H17        89.1790   96.2230 -106.4830 h1        1 3QG      0.026500
     47 H19        17.6950   35.2270  -27.4260 ha        1 3QG      0.109000
     48 H20        18.9510   36.4550  -26.8500 ha        1 3QG      0.109000
     49 H21        19.5870   36.9240  -29.2350 ha        1 3QG      0.109000
     50 H22        18.3320   35.6960  -29.8110 ha        1 3QG      0.109000
     51 H25        86.0960   94.1860 -107.2340 h1        1 3QG      0.076000
     52 H26        86.2750   95.9550 -106.8370 h1        1 3QG      0.076000
     53 H27        87.8970   96.3270 -108.5690 h1        1 3QG      0.093000
     54 H28        88.2590   94.5470 -108.7550 h1        1 3QG      0.093000
     55 H29        92.8970   99.0690 -104.5410 ho        1 3QG      0.217500
     56 H30        85.4770   99.3530 -111.2150 h5        1 3QG      0.123000
     57 H31        86.1390   93.0470 -109.6340 h5        1 3QG      0.172000
     58 HBD1       91.0260   94.8340 -105.8290 hn        1 3QG      0.181000
     59 HBC1       88.2680   93.8530 -106.3050 hn        1 3QG      0.150000
@<TRIPOS>BOND
     1    1    2 1   
     2    1   55 1   
     3    2    3 1   
     4    2    4 1   
     5    2    5 1   
     6    5    6 1   
     7    5   35 1   
     8    5   36 1   
     9    6    7 1   
    10    6   37 1   
    11    6   38 1   
    12    7    8 1   
    13    7   14 1   
    14    7   58 1   
    15    8    9 1   
    16    8   39 1   
    17    8   40 1   
    18    9   10 1   
    19    9   41 1   
    20    9   42 1   
    21   10   11 1   
    22   10   12 1   
    23   10   13 1   
    24   13   44 1   
    25   14   15 1   
    26   14   43 1   
    27   15   16 1   
    28   15   45 1   
    29   15   46 1   
    30   16   23 1   
    31   16   59 1   
    32   17   18 1   
    33   17   47 1   
    34   17   48 1   
    35   18   49 1   
    36   18   50 1   
    37   19   20 1   
    38   19   21 1   
    39   21   22 1   
    40   23   24 1   
    41   23   51 1   
    42   23   52 1   
    43   24   25 1   
    44   24   53 1   
    45   24   54 1   
    46   25   26 1   
    47   25   34 1   
    48   26   27 1   
    49   26   32 1   
    50   27   28 1   
    51   28   29 1   
    52   28   56 1   
    53   29   30 1   
    54   30   31 1   
    55   30   32 1   
    56   32   33 1   
    57   33   34 1   
    58   34   57 1   
@<TRIPOS>SUBSTRUCTURE
     1 3QG         1 TEMP              0 ****  ****    0 ROOT
