@<TRIPOS>MOLECULE
molecule
   44    46     1     0     0
SMALL
bcc


@<TRIPOS>ATOM
      1 C1           0.0000     0.0000     0.0000 ca         1 3QH       0.003000
      2 C2           1.4050     0.0000     0.0000 ca         1 3QH      -0.066000
      3 C3           2.1020     0.0000     1.1670 ca         1 3QH      -0.185300
      4 C4          -0.7010    -0.0010     1.1980 ca         1 3QH      -0.034000
      5 C5           0.0040    -0.0000     2.4060 ca         1 3QH      -0.178300
      6 C6           1.4210     0.0000     2.3970 ca         1 3QH       0.480600
      7 N7           2.1000    -0.0010     3.5510 nb         1 3QH      -0.647000
      8 C8           1.4980    -0.0010     4.7140 ca         1 3QH       0.445200
      9 C9           0.0990    -0.0020     4.8190 ca         1 3QH      -0.426900
     10 C10         -0.6760    -0.0010     3.6490 ca         1 3QH       0.341600
     11 C11         -0.7120     0.0050    -1.2420 cg         1 3QH       0.209800
     12 N12         -1.2660     0.0240    -2.2350 n1         1 3QH      -0.300800
     13 C13         -0.5480    -0.0030     6.1410 c          1 3QH       0.517700
     14 N14          0.1990     0.1070     7.2570 nz         1 3QH      -0.691400
     15 O15         -1.7570    -0.1050     6.2260 o          1 3QH      -0.455100
     16 C16         -4.1690     0.4580     2.8020 ca         1 3QH      -0.190300
     17 C17         -3.0070     0.9860     3.7520 c3         1 3QH       0.318800
     18 C18         -4.9090     1.6390     1.7750 ca         1 3QH      -0.097500
     19 C19         -4.7290    -0.6670     2.5850 ca         1 3QH      -0.097500
     20 C20         -3.4550     1.1640     5.0850 c3         1 3QH      -0.156100
     21 N21         -2.0510    -0.0010     3.7070 nu         1 3QH      -0.771600
     22 C22         -5.6400     1.3800     1.1570 ca         1 3QH      -0.091500
     23 C23         -5.7590    -1.0270     1.7130 ca         1 3QH      -0.091500
     24 C24         -6.1940     0.2470     0.9490 ca         1 3QH      -0.127300
     25 C25         -7.4750    -0.4760    -0.1160 c3         1 3QH      -0.015800
     26 H2           2.0890    -0.0200    -0.8400 ha         1 3QH       0.167000
     27 H4          -1.6860    -0.4090     1.0100 ha         1 3QH       0.182000
     28 H3           3.1030     0.2640     0.8460 ha         1 3QH       0.178000
     29 H8           2.1060    -0.2510     5.5750 h4         1 3QH       0.004100
     30 H21         -2.2270    -0.7540     4.3420 hn         1 3QH       0.413800
     31 H141         0.2430    -0.8880     7.3470 hn         1 3QH       0.476133
     32 H142        -0.1450     0.4700     8.1240 hn         1 3QH       0.476133
     33 H17         -2.7890     2.0290     3.5560 h1         1 3QH       0.088700
     34 H18         -4.3340     2.5190     2.0360 ha         1 3QH       0.102500
     35 H19         -4.0230    -1.3890     2.9780 ha         1 3QH       0.102500
     36 H201        -2.6750     1.6180     5.6840 hc         1 3QH       0.059367
     37 H202        -3.8580     0.2530     5.5130 hc         1 3QH       0.059367
     38 H203        -4.4360     1.6040     4.9520 hc         1 3QH       0.059367
     39 H22         -6.2370     2.0600     0.5620 ha         1 3QH       0.147000
     40 H23         -5.8700    -2.0840     1.5070 ha         1 3QH       0.147000
     41 H251        -6.8320    -0.4370    -0.9870 hc         1 3QH       0.056367
     42 H252        -8.1260    -1.2970     0.1590 hc         1 3QH       0.056367
     43 H253        -8.1420     0.3780    -0.1280 hc         1 3QH       0.056367
     44 H143         1.0600     0.6180     7.2390 hn         1 3QH       0.476133
@<TRIPOS>BOND
     1     1     2 ar
     2     1     4 ar
     3     1    11 1
     4     2     3 ar
     5     3     6 ar
     6     4     5 ar
     7     5     6 ar
     8     5    10 ar
     9     6     7 ar
    10     7     8 ar
    11     8     9 ar
    12     9    10 ar
    13     9    13 1
    14    10    21 1
    15    11    12 3
    16    13    14 1
    17    13    15 2
    18    16    17 1
    19    16    18 ar
    20    16    19 ar
    21    17    20 1
    22    17    21 1
    23    18    22 ar
    24    19    23 ar
    25    22    24 ar
    26    23    24 ar
    27    24    25 1
    28     2    26 1
    29     4    27 1
    30     3    28 1
    31     8    29 1
    32    21    30 1
    33    14    31 1
    34    14    32 1
    35    17    33 1
    36    18    34 1
    37    19    35 1
    38    20    36 1
    39    20    37 1
    40    20    38 1
    41    22    39 1
    42    23    40 1
    43    25    41 1
    44    25    42 1
    45    25    43 1
    46    44    14 1
@<TRIPOS>SUBSTRUCTURE
     1 3QH         1 TEMP              0 ****  ****    0 ROOT
