@<TRIPOS>MOLECULE
3QI
   33    35     1     0     0
SMALL
bcc


@<TRIPOS>ATOM
      1 CAA          0.0000     0.0000     0.0000 c3         1 3QI       0.062200
      2 CAC          3.9530    -3.6910    -6.1140 c3         1 3QI       0.068200
      3 OAD          3.3840    -2.2310    -3.6310 o          1 3QI      -0.664500
      4 SAE          3.3990     2.6950    -3.3300 sh         1 3QI      -0.284000
      5 CAF          3.7790     0.0000     0.0000 ca         1 3QI       0.412200
      6 CAG          2.4760     0.0000     0.4570 ca         1 3QI      -0.196300
      7 CAH          1.7440    -0.0020    -1.8110 ca         1 3QI      -0.173300
      8 NAI          4.0430    -0.0010    -1.2920 nb         1 3QI      -0.542000
      9 NAJ          3.8920     1.2190    -5.4900 nc         1 3QI      -0.534100
     10 SAK          4.4480    -0.1370    -7.9080 ss         1 3QI      -0.231800
     11 CAL          1.4350    -0.0000    -0.4620 ca         1 3QI      -0.053300
     12 CAM          4.3800    -1.8840    -7.7580 cc         1 3QI      -0.010400
     13 CAN          4.0780    -2.2470    -6.5270 cd         1 3QI      -0.033300
     14 CAO          3.0790    -0.0020    -2.1980 ca         1 3QI       0.319200
     15 CAP          3.5840     1.1830    -4.2150 cd         1 3QI       0.366800
     16 CAQ          3.5430    -1.1710    -4.2120 c          1 3QI       0.630100
     17 CAR          4.0450     0.0920    -6.2120 cc         1 3QI       0.281300
     18 CAS          3.8750    -1.1480    -5.6000 cd         1 3QI      -0.244600
     19 NAT          3.4050    -0.0030    -3.5560 n          1 3QI       0.131200
     20 HAA         -0.0370    -0.1960     1.0650 hc         1 3QI       0.013700
     21 HAAA        -0.4450     0.9660    -0.2050 hc         1 3QI       0.013700
     22 HAAB        -0.5490    -0.7700    -0.5280 hc         1 3QI       0.013700
     23 HAB          4.8670    -2.2900    -9.7910 hc         1 3QI       0.012367
     24 HABA         5.4690    -3.4880    -8.6370 hc         1 3QI       0.012367
     25 HABB         3.7510    -3.4490    -9.0570 hc         1 3QI       0.012367
     26 HAC          2.9520    -3.8750    -5.7440 hc         1 3QI       0.018700
     27 HACA         4.6720    -3.9070    -5.3330 hc         1 3QI       0.018700
     28 HACB         4.1460    -4.3290    -6.9680 hc         1 3QI       0.018700
     29 HSAE         3.8520     3.6990    -4.0710 hs         1 3QI       0.223800
     30 HAF          4.5950     0.0000     0.7120 h4         1 3QI      -0.014900
     31 HAG          2.2690     0.0010     1.5200 ha         1 3QI       0.118000
     32 HAH          0.9570    -0.0020    -2.5550 ha         1 3QI       0.124000
     33 CAB          4.6350    -2.8450    -8.8900 c3         1 3QI       0.109200
@<TRIPOS>BOND
     1     1    11 1   
     2     1    20 1   
     3     1    21 1   
     4     1    22 1   
     5     2    13 1   
     6     2    26 1   
     7     2    27 1   
     8     2    28 1   
     9     3    16 2   
    10     4    15 1   
    11     4    29 1   
    12     5     6 ar  
    13     5     8 ar  
    14     5    30 1   
    15     6    11 ar  
    16     6    31 1   
    17     7    11 ar  
    18     7    14 ar  
    19     7    32 1   
    20     8    14 ar  
    21     9    15 2   
    22     9    17 1   
    23    10    12 1   
    24    10    17 1   
    25    12    13 2   
    26    12    33 1   
    27    13    18 1   
    28    14    19 1   
    29    15    19 1   
    30    16    18 1   
    31    16    19 1   
    32    17    18 2   
    33    23    33 1   
    34    24    33 1   
    35    25    33 1   
@<TRIPOS>SUBSTRUCTURE
     1 3QI         1 TEMP              0 ****  ****    0 ROOT
