@<TRIPOS>MOLECULE
3QL
   54    56     1     0     0
SMALL
bcc


@<TRIPOS>ATOM
      1 O7A          0.0000     0.0000     0.0000 o          1 3QL      -0.660100
      2 C7A          1.2130     0.0000     0.0000 c          1 3QL       0.594100
      3 C8A          1.9650     0.0000     1.3060 c3         1 3QL      -0.066100
      4 N2A          1.8870    -0.0070    -1.1660 ns         1 3QL      -0.173900
      5 C2A          1.1560    -0.0130    -2.4350 c3         1 3QL      -0.032300
      6 C3A          2.0360    -0.6220    -3.5310 c3         1 3QL       0.164100
      7 O3A          2.3200    -1.9850    -3.2130 oh         1 3QL      -0.577800
      8 C4A          1.2910    -0.5520    -4.8680 c3         1 3QL       0.136100
      9 O4A          2.1320    -1.0510    -5.9100 oh         1 3QL      -0.582800
     10 C5A          0.9220     0.9050    -5.1610 c3         1 3QL       0.175100
     11 C6A          0.1240     0.9770    -6.4650 c3         1 3QL       0.225400
     12 O6A         -0.1190     2.3450    -6.8000 oh         1 3QL      -0.585800
     13 O5A          0.1300     1.4200    -4.0890 os         1 3QL      -0.412600
     14 C1A          0.7920     1.4230    -2.8230 c3         1 3QL       0.381900
     15 O1A         -0.0750     1.9790    -1.8330 os         1 3QL      -0.365600
     16 C4B         -0.3870     3.3590    -2.0410 c3         1 3QL       0.123100
     17 C3B         -1.7820     3.6620    -1.4820 c3         1 3QL       0.183100
     18 O3B         -2.1630     4.9890    -1.8470 oh         1 3QL      -0.558800
     19 C5B          0.6370     4.2350    -1.3020 c3         1 3QL       0.117100
     20 O5B          0.6360     3.8170     0.0860 os         1 3QL      -0.404600
     21 C1B         -0.5920     4.3870     0.5890 c3         1 3QL       0.379900
     22 O1B         -0.6840     5.7010     0.0080 os         1 3QL      -0.397600
     23 C6B          0.0600     5.6680    -1.2230 c3         1 3QL       0.160400
     24 C2B         -1.7530     3.5390     0.0450 c3         1 3QL      -0.051300
     25 N2B         -1.5540     2.1370     0.4210 ns         1 3QL      -0.215900
     26 C7B         -1.9820     1.6940     1.6210 c          1 3QL       0.584100
     27 O7B         -2.5300     2.4560     2.3880 o          1 3QL      -0.683100
     28 C8B         -1.7780     0.2520     2.0080 c3         1 3QL      -0.067100
     29 H1           3.0070    -0.2320     1.1220 hc         1 3QL       0.026033
     30 H2           1.5410    -0.7450     1.9680 hc         1 3QL       0.026033
     31 H3           1.8890     0.9770     1.7670 hc         1 3QL       0.026033
     32 H4           2.8880    -0.0320    -1.1650 hn         1 3QL       0.172500
     33 H5           0.2500    -0.5980    -2.3340 h1         1 3QL       0.085700
     34 H6           2.9600    -0.0620    -3.6040 h1         1 3QL       0.014700
     35 H7           3.2440    -2.1440    -3.3090 ho         1 3QL       0.399000
     36 H8           0.3880    -1.1470    -4.8080 h1         1 3QL       0.030700
     37 H9           1.8410    -1.9110    -6.1640 ho         1 3QL       0.403000
     38 H10          1.8270     1.4930    -5.2530 h1         1 3QL       0.027700
     39 H11         -0.8210     0.4620    -6.3390 h1         1 3QL      -0.000300
     40 H12          0.6890     0.5050    -7.2600 h1         1 3QL      -0.000300
     41 H13         -0.5700     2.3900    -7.6270 ho         1 3QL       0.392000
     42 H14          1.6960     2.0160    -2.8920 h2         1 3QL      -0.003300
     43 H15         -0.3620     3.5830    -3.1000 h1         1 3QL       0.042700
     44 H16         -2.4960     2.9560    -1.8890 h1         1 3QL       0.019700
     45 H17         -2.9960     4.9680    -2.2880 ho         1 3QL       0.385000
     46 H18          1.6230     4.2030    -1.7490 h1         1 3QL       0.045700
     47 H19         -0.5990     4.4280     1.6720 h2         1 3QL       0.067700
     48 H20         -0.5960     5.8570    -2.0640 h1         1 3QL       0.034700
     49 H21          0.8610     6.3960    -1.1980 h1         1 3QL       0.034700
     50 H22         -2.6890     3.8970     0.4570 h1         1 3QL       0.071700
     51 H23         -1.1570     1.4950    -0.2360 hn         1 3QL       0.240500
     52 H24         -1.9560    -0.3820     1.1470 hc         1 3QL       0.024700
     53 H25         -2.4700    -0.0110     2.7990 hc         1 3QL       0.024700
     54 H26         -0.7620     0.1110     2.3550 hc         1 3QL       0.024700
@<TRIPOS>BOND
     1     1     2 2   
     2     2     3 1   
     3     2     4 1   
     4     3    29 1   
     5     3    30 1   
     6     3    31 1   
     7     4     5 1   
     8     4    32 1   
     9     5     6 1   
    10     5    14 1   
    11     5    33 1   
    12     6     7 1   
    13     6     8 1   
    14     6    34 1   
    15     7    35 1   
    16     8     9 1   
    17     8    10 1   
    18     8    36 1   
    19     9    37 1   
    20    10    11 1   
    21    10    13 1   
    22    10    38 1   
    23    11    12 1   
    24    11    39 1   
    25    11    40 1   
    26    12    41 1   
    27    13    14 1   
    28    14    15 1   
    29    14    42 1   
    30    15    16 1   
    31    16    17 1   
    32    16    19 1   
    33    16    43 1   
    34    17    18 1   
    35    17    24 1   
    36    17    44 1   
    37    18    45 1   
    38    19    20 1   
    39    19    23 1   
    40    19    46 1   
    41    20    21 1   
    42    21    22 1   
    43    21    24 1   
    44    21    47 1   
    45    22    23 1   
    46    23    48 1   
    47    23    49 1   
    48    24    25 1   
    49    24    50 1   
    50    25    26 1   
    51    25    51 1   
    52    26    27 2   
    53    26    28 1   
    54    28    52 1   
    55    28    53 1   
    56    28    54 1   
@<TRIPOS>SUBSTRUCTURE
     1 3QL         1 TEMP              0 ****  ****    0 ROOT
