@<TRIPOS>MOLECULE
molecule
   22    22     1     0     0
SMALL
bcc


@<TRIPOS>ATOM
      1 C45          0.0000     0.0000     0.0000 ca         1 3QM      -0.119500
      2 C46          1.3830     0.0000     0.0000 ca         1 3QM      -0.124000
      3 C47          2.0730     0.0000     1.1970 ca         1 3QM      -0.125000
      4 C48          1.3820    -0.0010     2.3940 ca         1 3QM      -0.124000
      5 C49         -0.0000    -0.0000     2.3940 ca         1 3QM      -0.119500
      6 C44         -0.6910    -0.0010     1.1970 ca         1 3QM      -0.103300
      7 C43         -2.1980     0.0040     1.1970 c3         1 3QM      -0.015100
      8 C41         -2.7130    -1.4360     1.1930 c3         1 3QM      -0.009500
      9 C42         -4.2390    -1.4320     1.3180 c3         1 3QM      -0.075100
     10 N7          -2.3290    -2.0890    -0.0610 n2         1 3QM      -0.011900
     11 O1          -1.6260    -3.0840    -0.0400 o          1 3QM      -0.157300
     12 H1          -0.5420    -0.0000    -0.9380 ha         1 3QM       0.132500
     13 H2           1.9250     0.0000    -0.9380 ha         1 3QM       0.131000
     14 H3           3.1560    -0.0000     1.1970 ha         1 3QM       0.130000
     15 H4           1.9240    -0.0000     3.3320 ha         1 3QM       0.131000
     16 H5          -0.5420    -0.0010     3.3320 ha         1 3QM       0.132500
     17 H6          -2.5570     0.5180     0.3130 hc         1 3QM       0.061200
     18 H7          -2.5580     0.5140     2.0820 hc         1 3QM       0.061200
     19 H8          -2.2830    -1.9760     2.0280 h1         1 3QM       0.062700
     20 H9          -4.6070    -2.4510     1.2810 hc         1 3QM       0.046700
     21 H10         -4.5220    -0.9800     2.2600 hc         1 3QM       0.046700
     22 H11         -4.6670    -0.8640     0.5010 hc         1 3QM       0.046700
@<TRIPOS>BOND
     1     2     1 ar  
     2     2     3 ar  
     3     1     6 ar  
     4     3     4 ar  
     5     6     7 1   
     6     6     5 ar  
     7     7     8 1   
     8     4     5 ar  
     9     8     9 1   
    10     8    10 1   
    11    10    11 2   
    12     1    12 1   
    13     2    13 1   
    14     3    14 1   
    15     4    15 1   
    16     5    16 1   
    17     7    17 1   
    18     7    18 1   
    19     8    19 1   
    20     9    20 1   
    21     9    21 1   
    22     9    22 1   
@<TRIPOS>SUBSTRUCTURE
     1 3QM         1 TEMP              0 ****  ****    0 ROOT
