@<TRIPOS>MOLECULE
3QO
   24    21     1     0     0
SMALL
bcc


@<TRIPOS>ATOM
      1 CAA        -2.9330   -2.4030    2.6950 c1        1 3QO      0.259000
      2 CAB         3.2180    0.6950   -0.1150 c1        1 3QO     -0.221500
      3 CAC        -1.8020   -1.8200    2.8340 c1        1 3QO     -0.528000
      4 CAD         1.7810    3.4620    5.2080 c2        1 3QO     -0.049000
      5 CAE         4.0440    3.1860    4.6100 c2        1 3QO     -0.435000
      6 CAF         4.2820    0.2950    0.2570 c1        1 3QO     -0.221500
      7 CAG        -0.6700   -1.2380    2.9740 c1        1 3QO      0.215000
      8 CAH         1.1080    2.6980    4.1570 c2        1 3QO     -0.181000
      9 CAI         5.3540    3.1960    4.8320 c1        1 3QO      0.247000
     10 NAK         3.0290    3.6860    5.4330 n2        1 3QO     -0.091000
     11 CAL         0.4920   -0.6630    3.1200 c2        1 3QO     -0.221000
     12 CAM         1.4950    1.4850    3.7490 c2        1 3QO     -0.136000
     13 HAA         0.0420    1.8380   -0.5600 ha        1 3QO      0.000500
     14 HAB         2.2770    1.0500   -0.4560 ha        1 3QO      0.221000
     15 HAC         0.1400    1.6530    0.0840 ha        1 3QO      0.000500
     16 HAE         3.7700    2.7400    3.6170 h4        1 3QO      0.174000
     17 HAF         5.2260   -0.0610    0.5820 ha        1 3QO      0.221000
     18 HAG         1.3240   -1.2210    3.5890 ha        1 3QO      0.179000
     19 HAH         0.2180    3.1930    3.7320 ha        1 3QO      0.140000
     20 HAI         2.3660    0.9760    4.1960 ha        1 3QO      0.133000
     21 CAJ         0.7950    0.7240    2.6820 c3        1 3QO     -0.083000
     22 HAD         1.0900    3.9470    5.9340 h4        1 3QO      0.160000
     23 HAJ         1.4730    0.6680    1.7780 hc        1 3QO      0.107500
     24 HAJA       -0.1410    1.2550    2.3590 hc        1 3QO      0.107500
@<TRIPOS>BOND
     1    1    3 1   
     2    2    6 1   
     3    2   14 1   
     4    3    7 1   
     5    4    8 1   
     6    4   10 1   
     7    4   22 1   
     8    5    9 1   
     9    5   10 1   
    10    5   16 1   
    11    6   17 1   
    12    7   11 1   
    13    8   12 1   
    14    8   19 1   
    15   11   18 1   
    16   11   21 1   
    17   12   20 1   
    18   12   21 1   
    19   13   15 1   
    20   21   23 1   
    21   21   24 1   
@<TRIPOS>SUBSTRUCTURE
     1 3QO         1 TEMP              0 ****  ****    0 ROOT
