@<TRIPOS>MOLECULE
molecule
   64    66     1     0     0
SMALL
bcc


@<TRIPOS>ATOM
      1 C4           0.0000     0.0000     0.0000 c3         1 3QQ       0.244800
      2 C6          -0.6280    -1.2640     2.1090 c3         1 3QQ       0.293100
      3 C11          2.8080    -2.7520     2.5880 ca         1 3QQ      -0.172500
      4 C7           0.6940    -1.6360     2.7280 ca         1 3QQ      -0.135300
      5 C8           1.0050    -1.2030     4.0030 ca         1 3QQ      -0.085500
      6 C9           2.2220    -1.5350     4.5690 ca         1 3QQ      -0.172500
      7 C10          3.1220    -2.3150     3.8630 ca         1 3QQ       0.138900
      8 C12          1.5950    -2.4100     2.0210 ca         1 3QQ      -0.085500
      9 C3           2.0400    -0.1260    -1.4370 c3         1 3QQ      -0.084100
     10 C1           2.0410     1.3070     0.6100 c3         1 3QQ      -0.084100
     11 C2           1.5310     0.0000     0.0000 c3         1 3QQ      -0.108700
     12 N5          -0.4880     0.0000     1.3810 n3         1 3QQ      -0.812500
     13 F13          4.3070    -2.6490     4.4200 f          1 3QQ      -0.141900
     14 S14         -0.8810     1.4280     2.1200 sy         1 3QQ       1.435200
     15 O15         -0.7750     1.2000     3.5180 o          1 3QQ      -0.641300
     16 O16         -0.1550     2.4450     1.4420 o          1 3QQ      -0.641300
     17 C17         -2.5860     1.7330     1.7940 ca         1 3QQ      -0.506800
     18 C18         -3.5610     1.2570     2.6600 ca         1 3QQ       0.043000
     19 C19         -4.8880     1.5170     2.3690 ca         1 3QQ      -0.346300
     20 C20         -5.1990     2.2440     1.2240 ca         1 3QQ       0.744200
     21 N21         -4.2390     2.6810     0.4220 nb         1 3QQ      -0.776000
     22 C22         -2.9650     2.4510     0.6790 ca         1 3QQ       0.568200
     23 N23         -6.5270     2.5140     0.9170 nu         1 3QQ      -0.905900
     24 C24         -7.5940     2.0330     1.8000 c3         1 3QQ       0.244500
     25 C25         -7.8040     3.0350     2.9380 c3         1 3QQ      -0.116900
     26 C26         -8.8960     2.5120     3.8770 c3         1 3QQ       0.239800
     27 N27        -10.1030     2.2320     3.0880 n3         1 3QQ      -0.821500
     28 C28         -9.9950     1.3530     1.9170 c3         1 3QQ       0.239800
     29 C29         -8.8910     1.8880     0.9990 c3         1 3QQ      -0.116900
     30 S30        -11.5600     2.8960     3.5140 s6         1 3QQ       1.325900
     31 O31        -12.5230     1.9890     2.9940 o          1 3QQ      -0.624800
     32 O32        -11.4470     3.1230     4.9120 o          1 3QQ      -0.624800
     33 C33        -11.6200     4.4710     2.6150 c3         1 3QQ      -0.248300
     34 H1          -0.3610    -0.8840    -0.5110 h1         1 3QQ       0.049700
     35 H2          -0.3610     0.8840    -0.5110 h1         1 3QQ       0.049700
     36 H3          -0.9370    -2.0430     1.4220 h1         1 3QQ       0.056700
     37 H4          -1.3730    -1.1520     2.8870 h1         1 3QQ       0.056700
     38 H6           0.3010    -0.5930     4.5550 ha         1 3QQ       0.151000
     39 H7           2.4670    -1.1940     5.5680 ha         1 3QQ       0.147000
     40 H8           1.3490    -2.7520     1.0230 ha         1 3QQ       0.151000
     41 H9           1.6720    -1.0480    -1.8710 hc         1 3QQ       0.037867
     42 H10          3.1230    -0.1350    -1.4370 hc         1 3QQ       0.037867
     43 H11          1.6860     0.7150    -2.0210 hc         1 3QQ       0.037867
     44 H12          1.7830     1.3400     1.6610 hc         1 3QQ       0.037867
     45 H13          3.1170     1.3610     0.5000 hc         1 3QQ       0.037867
     46 H14          1.5830     2.1460     0.0990 hc         1 3QQ       0.037867
     47 H15          1.8920    -0.8370     0.5860 hc         1 3QQ       0.063700
     48 H16         -3.2890     0.6930     3.5450 ha         1 3QQ       0.153000
     49 H17         -5.6740     1.1600     3.0230 ha         1 3QQ       0.143000
     50 H18         -2.2070     2.8240     0.0000 h4         1 3QQ       0.041100
     51 H19         -6.7570     3.0060     0.0770 hn         1 3QQ       0.453800
     52 H20         -7.3190     1.0710     2.2150 h1         1 3QQ       0.065700
     53 H21         -6.8790     3.1520     3.4900 hc         1 3QQ       0.057450
     54 H22         -8.1090     3.9890     2.5260 hc         1 3QQ       0.057450
     55 H23         -9.1180     3.2620     4.6260 h1         1 3QQ       0.064950
     56 H24         -8.5570     1.6010     4.3550 h1         1 3QQ       0.064950
     57 H25        -10.9370     1.3430     1.3830 h1         1 3QQ       0.064950
     58 H26         -9.7430     0.3490     2.2400 h1         1 3QQ       0.064950
     59 H27         -9.1840     2.8550     0.6090 hc         1 3QQ       0.057450
     60 H28         -8.7340     1.1940     0.1820 hc         1 3QQ       0.057450
     61 H29        -12.5550     4.9730     2.8290 h1         1 3QQ       0.096367
     62 H30        -10.7930     5.0970     2.9280 h1         1 3QQ       0.096367
     63 H31        -11.5470     4.2820     1.5510 h1         1 3QQ       0.096367
     64 H5           3.5130    -3.3610     2.0350 ha         1 3QQ       0.147000
@<TRIPOS>BOND
     1     9    11 1   
     2    13     7 1   
     3    11     1 1   
     4    11    10 1   
     5     7     6 ar  
     6     7     3 ar  
     7     6     5 ar  
     8     3     8 ar  
     9     1    12 1   
    10     5     4 ar  
    11     8     4 ar  
    12     4     2 1   
    13    12     2 1   
    14    12    14 1   
    15    16    14 2   
    16    14    15 2   
    17    14    17 1   
    18    22    17 ar  
    19    22    21 ar  
    20    17    18 ar  
    21    21    20 ar  
    22    18    19 ar  
    23    20    19 ar  
    24    20    23 1   
    25    25    26 1   
    26    25    24 1   
    27    26    27 1   
    28    24    23 1   
    29    24    29 1   
    30    32    30 2   
    31    27    30 1   
    32    27    28 1   
    33    29    28 1   
    34    30    33 1   
    35    30    31 2   
    36     1    34 1   
    37     1    35 1   
    38     2    36 1   
    39     2    37 1   
    40     3    64 1   
    41     5    38 1   
    42     6    39 1   
    43     8    40 1   
    44     9    41 1   
    45     9    42 1   
    46     9    43 1   
    47    10    44 1   
    48    10    45 1   
    49    10    46 1   
    50    11    47 1   
    51    18    48 1   
    52    19    49 1   
    53    22    50 1   
    54    23    51 1   
    55    24    52 1   
    56    25    53 1   
    57    25    54 1   
    58    26    55 1   
    59    26    56 1   
    60    28    57 1   
    61    28    58 1   
    62    29    59 1   
    63    29    60 1   
    64    33    61 1   
    65    33    62 1   
    66    33    63 1   
@<TRIPOS>SUBSTRUCTURE
     1 3QQ         1 TEMP              0 ****  ****    0 ROOT
