@<TRIPOS>MOLECULE
3QQ
   64    66     1     0     0
SMALL
bcc


@<TRIPOS>ATOM
      1 C4           0.0000     0.0000     0.0000 c3         1 3QQ       0.244800
      2 C6          -0.6280    -1.2640     2.1090 c3         1 3QQ       0.304100
      3 C11          2.8080    -2.7520     2.5880 ca         1 3QQ      -0.138000
      4 C7           0.6940    -1.6360     2.7280 ca         1 3QQ      -0.144300
      5 C8           1.0050    -1.2030     4.0030 ca         1 3QQ      -0.059500
      6 C9           2.2220    -1.5350     4.5690 ca         1 3QQ      -0.138000
      7 C10          3.1220    -2.3150     3.8630 ca         1 3QQ       0.107900
      8 C12          1.5950    -2.4100     2.0210 ca         1 3QQ      -0.059500
      9 C3           2.0400    -0.1260    -1.4370 c3         1 3QQ       0.002900
     10 C1           2.0410     1.3070     0.6100 c3         1 3QQ       0.002900
     11 C2           1.5310     0.0000     0.0000 c3         1 3QQ      -0.107700
     12 N5          -0.4880     0.0000     1.3810 n3         1 3QQ      -0.523500
     13 F13          4.3070    -2.6490     4.4200 f          1 3QQ      -0.129900
     14 S14         -0.8810     1.4280     2.1200 sy         1 3QQ       1.061200
     15 O15         -0.7750     1.2000     3.5180 o          1 3QQ      -0.590800
     16 O16         -0.1550     2.4450     1.4420 o          1 3QQ      -0.590800
     17 C17         -2.5860     1.7330     1.7940 ca         1 3QQ      -0.353800
     18 C18         -3.5610     1.2570     2.6600 ca         1 3QQ       0.087000
     19 C19         -4.8880     1.5170     2.3690 ca         1 3QQ      -0.348300
     20 C20         -5.1990     2.2440     1.2240 ca         1 3QQ       0.562200
     21 N21         -4.2390     2.6810     0.4220 nb         1 3QQ      -0.680000
     22 C22         -2.9650     2.4510     0.6790 ca         1 3QQ       0.562200
     23 N23         -6.5270     2.5140     0.9170 nu         1 3QQ      -0.493900
     24 C24         -7.5940     2.0330     1.8000 c3         1 3QQ       0.129500
     25 C25         -7.8040     3.0350     2.9380 c3         1 3QQ      -0.064400
     26 C26         -8.8960     2.5120     3.8770 c3         1 3QQ       0.246300
     27 N27        -10.1030     2.2320     3.0880 n3         1 3QQ      -0.550500
     28 C28         -9.9950     1.3530     1.9170 c3         1 3QQ       0.246300
     29 C29         -8.8910     1.8880     0.9990 c3         1 3QQ      -0.064400
     30 S30        -11.5600     2.8960     3.5140 s6         1 3QQ       0.966900
     31 O31        -12.5230     1.9890     2.9940 o          1 3QQ      -0.581800
     32 O32        -11.4470     3.1230     4.9120 o          1 3QQ      -0.581800
     33 C33        -11.6200     4.4710     2.6150 c3         1 3QQ       0.011700
     34 H1          -0.3610    -0.8840    -0.5110 h1         1 3QQ       0.017200
     35 H2          -0.3610     0.8840    -0.5110 h1         1 3QQ       0.017200
     36 H3          -0.9370    -2.0430     1.4220 h1         1 3QQ       0.019200
     37 H4          -1.3730    -1.1520     2.8870 h1         1 3QQ       0.019200
     38 H6           0.3010    -0.5930     4.5550 ha         1 3QQ       0.126500
     39 H7           2.4670    -1.1940     5.5680 ha         1 3QQ       0.119500
     40 H8           1.3490    -2.7520     1.0230 ha         1 3QQ       0.126500
     41 H9           1.6720    -1.0480    -1.8710 hc         1 3QQ       0.008367
     42 H10          3.1230    -0.1350    -1.4370 hc         1 3QQ       0.008367
     43 H11          1.6860     0.7150    -2.0210 hc         1 3QQ       0.008367
     44 H12          1.7830     1.3400     1.6610 hc         1 3QQ       0.008367
     45 H13          3.1170     1.3610     0.5000 hc         1 3QQ       0.008367
     46 H14          1.5830     2.1460     0.0990 hc         1 3QQ       0.008367
     47 H15          1.8920    -0.8370     0.5860 hc         1 3QQ       0.046700
     48 H16         -3.2890     0.6930     3.5450 ha         1 3QQ       0.120000
     49 H17         -5.6740     1.1600     3.0230 ha         1 3QQ       0.132000
     50 H18         -2.2070     2.8240     0.0000 h4         1 3QQ      -0.003900
     51 H19         -6.7570     3.0060     0.0770 hn         1 3QQ       0.302800
     52 H20         -7.3190     1.0710     2.2150 h1         1 3QQ       0.046700
     53 H21         -6.8790     3.1520     3.4900 hc         1 3QQ       0.026450
     54 H22         -8.1090     3.9890     2.5260 hc         1 3QQ       0.026450
     55 H23         -9.1180     3.2620     4.6260 h1         1 3QQ       0.028950
     56 H24         -8.5570     1.6010     4.3550 h1         1 3QQ       0.028950
     57 H25        -10.9370     1.3430     1.3830 h1         1 3QQ       0.028950
     58 H26         -9.7430     0.3490     2.2400 h1         1 3QQ       0.028950
     59 H27         -9.1840     2.8550     0.6090 hc         1 3QQ       0.026450
     60 H28         -8.7340     1.1940     0.1820 hc         1 3QQ       0.026450
     61 H29        -12.5550     4.9730     2.8290 h1         1 3QQ       0.061367
     62 H30        -10.7930     5.0970     2.9280 h1         1 3QQ       0.061367
     63 H31        -11.5470     4.2820     1.5510 h1         1 3QQ       0.061367
     64 H5           3.5130    -3.3610     2.0350 ha         1 3QQ       0.119500
@<TRIPOS>BOND
     1     1    11 1   
     2     1    12 1   
     3     1    34 1   
     4     1    35 1   
     5     2     4 1   
     6     2    12 1   
     7     2    36 1   
     8     2    37 1   
     9     3     7 ar  
    10     3     8 ar  
    11     3    64 1   
    12     4     5 ar  
    13     4     8 ar  
    14     5     6 ar  
    15     5    38 1   
    16     6     7 ar  
    17     6    39 1   
    18     7    13 1   
    19     8    40 1   
    20     9    11 1   
    21     9    41 1   
    22     9    42 1   
    23     9    43 1   
    24    10    11 1   
    25    10    44 1   
    26    10    45 1   
    27    10    46 1   
    28    11    47 1   
    29    12    14 1   
    30    14    15 2   
    31    14    16 2   
    32    14    17 1   
    33    17    18 ar  
    34    17    22 ar  
    35    18    19 ar  
    36    18    48 1   
    37    19    20 ar  
    38    19    49 1   
    39    20    21 ar  
    40    20    23 1   
    41    21    22 ar  
    42    22    50 1   
    43    23    24 1   
    44    23    51 1   
    45    24    25 1   
    46    24    29 1   
    47    24    52 1   
    48    25    26 1   
    49    25    53 1   
    50    25    54 1   
    51    26    27 1   
    52    26    55 1   
    53    26    56 1   
    54    27    28 1   
    55    27    30 1   
    56    28    29 1   
    57    28    57 1   
    58    28    58 1   
    59    29    59 1   
    60    29    60 1   
    61    30    31 2   
    62    30    32 2   
    63    30    33 1   
    64    33    61 1   
    65    33    62 1   
    66    33    63 1   
@<TRIPOS>SUBSTRUCTURE
     1 3QQ         1 TEMP              0 ****  ****    0 ROOT
