@<TRIPOS>MOLECULE
3QR
   48    51     1     0     0
SMALL
bcc


@<TRIPOS>ATOM
      1 C4           0.0000     0.0000     0.0000 c3         1 3QR       0.145100
      2 C5           1.5300     0.0000     0.0000 c3         1 3QR       0.166100
      3 C6           2.0400    -1.2500    -0.7210 c3         1 3QR       0.223400
      4 C3          -0.5030     1.2220     0.7750 c3         1 3QR       0.161100
      5 CAX          4.2340     7.7250    -1.4300 ca         1 3QR       0.047000
      6 CAW          3.7670     8.8460    -2.0510 ca         1 3QR      -0.096500
      7 SBA          4.5390    10.2520    -2.8020 sy         1 3QR       1.028900
      8 OBB          5.1590    11.0030    -1.7670 o          1 3QR      -0.556300
      9 OBC          5.2100     9.7990    -3.9690 o          1 3QR      -0.556300
     10 NAZ          3.1820    11.0960    -3.2920 ns         1 3QR      -0.262300
     11 CAY          2.1310    10.3550    -2.9090 c          1 3QR       0.657100
     12 OBD          0.9930    10.7200    -3.1330 o          1 3QR      -0.626500
     13 CAU          1.4990     8.1310    -1.7100 ca         1 3QR      -0.006000
     14 CAT          1.9680     7.0020    -1.0830 ca         1 3QR      -0.095000
     15 CAB          3.3330     6.7830    -0.9350 ca         1 3QR      -0.126200
     16 NAA          3.7980     5.6290    -0.2950 na         1 3QR       0.590300
     17 CAC          3.0410     4.6270     0.2350 cc         1 3QR      -0.348600
     18 NAF          5.1360     5.2680    -0.0770 nc         1 3QR      -0.377800
     19 NAE          5.1480     4.1390     0.5410 nd         1 3QR      -0.233000
     20 CAD          3.8990     3.7200     0.7480 cd         1 3QR       0.234600
     21 CAG          3.5080     2.4390     1.4390 c3         1 3QR       0.202100
     22 O1           2.0840     2.3290     1.4690 os         1 3QR      -0.429600
     23 C1           1.6060     1.1430     2.1070 c3         1 3QR       0.380900
     24 O5           2.0060     0.0000     1.3470 os         1 3QR      -0.388600
     25 O6           3.4650    -1.1920    -0.8240 oh         1 3QR      -0.585800
     26 O4          -0.4780    -1.1920     0.6260 oh         1 3QR      -0.544800
     27 O3          -0.0800     2.4150     0.1120 oh         1 3QR      -0.566800
     28 C2           0.0780     1.1890     2.1920 c3         1 3QR       0.152100
     29 O2          -0.3970     0.0280     2.8760 oh         1 3QR      -0.538800
     30 H1          -0.3600     0.0480    -1.0210 h1         1 3QR       0.003700
     31 H2           1.8900     0.8870    -0.5080 h1         1 3QR       0.042700
     32 H3           1.7540    -2.1320    -0.1620 h1         1 3QR      -0.003800
     33 H4           1.6080    -1.2960    -1.7140 h1         1 3QR      -0.003800
     34 H5          -1.5850     1.1950     0.8280 h1         1 3QR       0.007700
     35 H7           3.1570    11.9940    -3.7320 hn         1 3QR       0.265500
     36 H12          0.4320     8.2840    -1.8160 ha         1 3QR       0.125000
     37 H13          1.2650     6.2720    -0.7000 ha         1 3QR       0.122000
     38 H14          1.9590     4.5720     0.2460 h4         1 3QR       0.176000
     39 H15          3.8920     2.4440     2.4530 h1         1 3QR       0.017700
     40 H16          3.9250     1.5970     0.9000 h1         1 3QR       0.017700
     41 H17          2.0190     1.0730     3.1060 h2         1 3QR       0.028700
     42 H18          3.7750    -1.9330    -1.3190 ho         1 3QR       0.388000
     43 H19         -1.1760    -1.5600     0.1100 ho         1 3QR       0.377000
     44 H20         -0.8340     2.8730    -0.2220 ho         1 3QR       0.383000
     45 H21         -0.2260     2.0800     2.7270 h1         1 3QR       0.010700
     46 H22         -0.7250     0.2750     3.7240 ho         1 3QR       0.381000
     47 CAV          2.3960     9.0900    -2.2130 ca         1 3QR      -0.124600
     48 H6           5.3010     7.5670    -1.3210 ha         1 3QR       0.143000
@<TRIPOS>BOND
     1     1     2 1   
     2     1     4 1   
     3     1    26 1   
     4     1    30 1   
     5     2     3 1   
     6     2    24 1   
     7     2    31 1   
     8     3    25 1   
     9     3    32 1   
    10     3    33 1   
    11     4    27 1   
    12     4    28 1   
    13     4    34 1   
    14     5     6 ar  
    15     5    15 ar  
    16     5    48 1   
    17     6     7 1   
    18     6    47 ar  
    19     7     8 2   
    20     7     9 2   
    21     7    10 1   
    22    10    11 1   
    23    10    35 1   
    24    11    12 2   
    25    11    47 1   
    26    13    14 ar  
    27    13    36 1   
    28    13    47 ar  
    29    14    15 ar  
    30    14    37 1   
    31    15    16 1   
    32    16    17 1   
    33    16    18 1   
    34    17    20 2   
    35    17    38 1   
    36    18    19 2   
    37    19    20 1   
    38    20    21 1   
    39    21    22 1   
    40    21    39 1   
    41    21    40 1   
    42    22    23 1   
    43    23    24 1   
    44    23    28 1   
    45    23    41 1   
    46    25    42 1   
    47    26    43 1   
    48    27    44 1   
    49    28    29 1   
    50    28    45 1   
    51    29    46 1   
@<TRIPOS>SUBSTRUCTURE
     1 3QR         1 TEMP              0 ****  ****    0 ROOT
