@<TRIPOS>MOLECULE
molecule
   57    61     1     0     0
SMALL
bcc


@<TRIPOS>ATOM
      1 C4           0.0000     0.0000     0.0000 c3         1 3QS      -0.091400
      2 C5           1.5300     0.0000     0.0000 c3         1 3QS       0.178800
      3 C11          5.3880    -0.3620     0.2800 ca         1 3QS       0.503200
      4 C7           1.5870     1.2070     2.1010 c3         1 3QS       0.178800
      5 C8           0.0590     1.2420     2.1630 c3         1 3QS      -0.091400
      6 C9           3.3980    -0.1310     1.4220 ca         1 3QS       0.898900
      7 C12          6.0680    -0.3790     1.4810 ca         1 3QS      -0.473600
      8 C13          5.3360    -0.2630     2.6640 ca         1 3QS       0.734200
      9 C3          -0.5060     1.2410     0.7400 c3         1 3QS       0.136100
     10 O2          -0.0710     2.4160     0.0530 os         1 3QS      -0.426600
     11 N6           2.0210     0.0000     1.3840 nh         1 3QS      -0.681300
     12 N10          4.0680    -0.2350     0.2840 nb         1 3QS      -0.815000
     13 N14          4.0140    -0.1380     2.5940 nb         1 3QS      -0.746000
     14 N15          5.9770    -0.2760     3.8940 nu         1 3QS      -0.863600
     15 C16          5.2510    -0.0480     5.0620 ca         1 3QS       0.688200
     16 C17          5.9210     0.0440     6.2700 ca         1 3QS      -0.333300
     17 C18          5.1850     0.2710     7.4300 ca         1 3QS       0.019800
     18 C19          3.7830     0.3950     7.3160 ca         1 3QS      -0.268100
     19 C20          3.2890     0.6240     8.6760 cc         1 3QS      -0.180200
     20 C21          4.3590     0.6260     9.4860 cd         1 3QS      -0.108100
     21 N22          5.5000     0.4150     8.7560 na         1 3QS      -0.064400
     22 C23          6.8540     0.3530     9.3110 c3         1 3QS       0.053000
     23 C24          7.1740     1.6570    10.0720 c3         1 3QS      -0.099400
     24 C25          6.8450     1.3250    11.5480 c3         1 3QS      -0.086900
     25 C26          7.3280    -0.1410    11.6850 c3         1 3QS      -0.086900
     26 C27          6.9530    -0.7890    10.3370 c3         1 3QS      -0.099400
     27 C28          3.1900     0.2880     6.0620 ca         1 3QS       0.499200
     28 N29          3.9320     0.0790     4.9920 nb         1 3QS      -0.694000
     29 H1          -0.3600     0.0180    -1.0210 hc         1 3QS       0.055200
     30 H2          -0.3600    -0.8900     0.5010 hc         1 3QS       0.055200
     31 H3           1.8900     0.8860    -0.5090 h1         1 3QS       0.061950
     32 H4           1.8900    -0.8860    -0.5090 h1         1 3QS       0.061950
     33 H5           5.9270    -0.4480    -0.6560 h4         1 3QS       0.024100
     34 H6           1.9460     2.0850     1.5770 h1         1 3QS       0.061950
     35 H7           1.9880     1.1910     3.1070 h1         1 3QS       0.061950
     36 H8          -0.2600     2.1410     2.6770 hc         1 3QS       0.055200
     37 H9          -0.3000     0.3690     2.6950 hc         1 3QS       0.055200
     38 H10          7.1460    -0.4820     1.5050 ha         1 3QS       0.136000
     39 H11         -1.5880     1.2200     0.7820 h1         1 3QS       0.034700
     40 H12         -1.3370     3.5690     1.2020 h1         1 3QS       0.028700
     41 H13         -1.7860     3.4180    -0.5030 h1         1 3QS       0.028700
     42 H14         -0.4240     4.4450    -0.0340 h1         1 3QS       0.028700
     43 H15          6.9590    -0.4640     3.9440 hn         1 3QS       0.462800
     44 H16          7.0000     0.1430     6.2850 ha         1 3QS       0.128000
     45 H17          2.2570     0.7660     8.9710 ha         1 3QS       0.154000
     46 H18          4.3260     0.7710    10.5590 h4         1 3QS       0.167000
     47 H19          7.5780     0.2010     8.5190 h1         1 3QS       0.072700
     48 H20          6.5450     2.4650     9.7170 hc         1 3QS       0.059200
     49 H21          8.2220     1.9080     9.9660 hc         1 3QS       0.059200
     50 H22          5.7790     1.3940    11.7270 hc         1 3QS       0.048950
     51 H23          7.3970     1.9730    12.2180 hc         1 3QS       0.048950
     52 H24          8.4010    -0.1720    11.8340 hc         1 3QS       0.048950
     53 H25          6.8110    -0.6340    12.4990 hc         1 3QS       0.048950
     54 H26          5.9970    -1.2930    10.4220 hc         1 3QS       0.059200
     55 H27          7.7230    -1.4900    10.0370 hc         1 3QS       0.059200
     56 H28          2.1160     0.3860     5.9620 h4         1 3QS       0.026100
     57 C1          -0.9580     3.5290     0.1880 c3         1 3QS       0.127700
@<TRIPOS>BOND
     1     7     3 ar  
     2     7     8 ar  
     3     3    12 ar  
     4    14     8 1   
     5    14    15 1   
     6    28    15 ar  
     7    28    27 ar  
     8     8    13 ar  
     9    15    16 ar  
    10    27    18 ar  
    11    12     6 ar  
    12    13     6 ar  
    13    16    17 ar  
    14    18    17 ar  
    15    18    19 1   
    16     6    11 1   
    17    17    21 1   
    18    19    20 2   
    19     2    11 1   
    20     2     1 1   
    21    11     4 1   
    22     1     9 1   
    23    21    20 1   
    24    21    22 1   
    25     5     4 1   
    26     5     9 1   
    27    22    26 1   
    28    22    23 1   
    29     9    10 1   
    30    26    25 1   
    31    10    57 1   
    32    23    24 1   
    33    25    24 1   
    34     1    29 1   
    35     1    30 1   
    36     2    31 1   
    37     2    32 1   
    38     3    33 1   
    39     4    34 1   
    40     4    35 1   
    41     5    36 1   
    42     5    37 1   
    43     7    38 1   
    44     9    39 1   
    45    57    40 1   
    46    57    41 1   
    47    57    42 1   
    48    14    43 1   
    49    16    44 1   
    50    19    45 1   
    51    20    46 1   
    52    22    47 1   
    53    23    48 1   
    54    23    49 1   
    55    24    50 1   
    56    24    51 1   
    57    25    52 1   
    58    25    53 1   
    59    26    54 1   
    60    26    55 1   
    61    27    56 1   
@<TRIPOS>SUBSTRUCTURE
     1 3QS         1 TEMP              0 ****  ****    0 ROOT
