@<TRIPOS>MOLECULE
3QT
   42    43     1     0     0
SMALL
bcc


@<TRIPOS>ATOM
      1 C1         -0.6900   -0.4330   -0.6440 ca        1 3QT      0.004000
      2 N1          0.6760   -0.6490   -0.6760 n2        1 3QT     -0.131000
      3 C2         -1.4660   -0.5780   -1.8370 ca        1 3QT     -0.101000
      4 N2         -5.7130   -2.1880   -0.8920 na        1 3QT     -0.153000
      5 C3         -2.8220   -0.3680   -1.8180 ca        1 3QT     -0.113000
      6 N3         -5.6180   -2.0940   -2.2160 n2        1 3QT      0.004000
      7 C4         -3.4890   -0.0030   -0.6190 ca        1 3QT     -0.083000
      8 N4         -5.2960   -1.7430   -7.0930 n2        1 3QT     -0.313000
      9 C5         -4.9570    0.2450   -0.6390 c3        1 3QT     -0.066000
     10 N5         -4.4890   -1.3100   -6.0970 n3        1 3QT     -0.024000
     11 C6         -5.7470   -0.9590   -0.1600 c2        1 3QT     -0.258000
     12 N6         -5.4480   -3.5440    1.1390 n2        1 3QT     -0.274000
     13 C7         -5.2700   -3.1490   -2.9360 c2        1 3QT     -0.091000
     14 C8         -5.2500   -3.0400   -4.4330 c3        1 3QT     -0.161000
     15 C9         -5.9790   -2.0710   -8.0060 c1        1 3QT      0.174000
     16 C10        -4.4490   -1.8750   -4.8630 c1        1 3QT     -0.007000
     17 C12        -4.8940   -4.4180   -2.3310 c2        1 3QT     -0.121000
     18 C13        -4.9250   -4.5320   -0.9880 c2        1 3QT     -0.109000
     19 C14        -5.3540   -3.3920   -0.1390 c2        1 3QT      0.118000
     20 C15        -6.4710   -0.7430    0.9480 c1        1 3QT      0.204000
     21 C16        -2.7660    0.1460    0.5460 ca        1 3QT     -0.101000
     22 C17        -1.3660   -0.0660    0.5610 ca        1 3QT     -0.084000
     23 C18        -0.5930    0.0770    1.7500 c2        1 3QT     -0.078000
     24 C19         0.7600   -0.1400    1.7040 c2        1 3QT     -0.184000
     25 C20         1.3490   -0.5040    0.4510 c2        1 3QT     -0.051000
     26 H2         -3.4090   -0.4900   -2.7460 ha        1 3QT      0.158000
     27 H3         -0.9580   -0.8610   -2.7720 ha        1 3QT      0.152000
     28 H5         -5.2970    0.5130   -1.6760 hc        1 3QT      0.115500
     29 H5A        -5.1980    1.1230    0.0250 hc        1 3QT      0.115500
     30 H9         -6.3130   -3.0160   -4.8090 hc        1 3QT      0.133000
     31 H10        -4.7690   -3.9680   -4.8610 hc        1 3QT      0.133000
     32 H11        -3.0440    0.0450   -5.5020 ha        1 3QT      0.065000
     33 H11A       -4.9410    1.7230   -6.3300 ha        1 3QT      0.007000
     34 H11B       -4.8770    1.6870   -5.6540 ha        1 3QT      0.007000
     35 H12        -4.5770   -5.2440   -2.9830 ha        1 3QT      0.150000
     36 H13        -4.6230   -5.4490   -0.4580 ha        1 3QT      0.171000
     37 H15        -5.7110   -2.7620    1.7020 hn        1 3QT      0.165000
     38 H16        -3.2640    0.4320    1.4850 ha        1 3QT      0.134000
     39 H18        -1.1000    0.3590    2.6860 ha        1 3QT      0.139000
     40 H19         1.3970   -0.0430    2.5920 ha        1 3QT      0.145000
     41 H20         2.4400   -0.6830    0.3940 h4        1 3QT      0.160000
     42 C11        -3.6720   -0.2350   -6.3810 c1        1 3QT      0.047000
@<TRIPOS>BOND
     1    1    2 1   
     2    1    3 1   
     3    1   22 1   
     4    2   25 1   
     5    3    5 1   
     6    3   27 1   
     7    4    6 1   
     8    4   11 1   
     9    4   19 1   
    10    5    7 1   
    11    5   26 1   
    12    6   13 1   
    13    7    9 1   
    14    7   21 1   
    15    8   10 1   
    16    8   15 1   
    17    9   11 1   
    18    9   28 1   
    19    9   29 1   
    20   10   16 1   
    21   10   42 1   
    22   11   20 1   
    23   12   19 1   
    24   12   37 1   
    25   13   14 1   
    26   13   17 1   
    27   14   16 1   
    28   14   30 1   
    29   14   31 1   
    30   17   18 1   
    31   17   35 1   
    32   18   19 1   
    33   18   36 1   
    34   21   22 1   
    35   21   38 1   
    36   22   23 1   
    37   23   24 1   
    38   23   39 1   
    39   24   25 1   
    40   24   40 1   
    41   25   41 1   
    42   32   42 1   
    43   33   34 1   
@<TRIPOS>SUBSTRUCTURE
     1 3QT         1 TEMP              0 ****  ****    0 ROOT
