@<TRIPOS>MOLECULE
molecule
   42    46     1     0     0
SMALL
bcc


@<TRIPOS>ATOM
      1 C1           0.0000     0.0000     0.0000 ca         1 3QT       0.418600
      2 N1           1.3360     0.0000     0.0000 nb         1 3QT      -0.681000
      3 C2          -0.7250     0.0000    -1.2050 ca         1 3QT      -0.163300
      4 N2          -5.1430    -2.1510    -1.0640 na         1 3QT       0.202200
      5 C3          -2.0860     0.0010    -1.1720 ca         1 3QT      -0.109000
      6 N3          -5.1690    -1.8630    -2.4320 nc         1 3QT      -0.516800
      7 C4          -2.7780     0.0010     0.0370 ca         1 3QT      -0.079300
      8 N4          -5.8700    -2.6520    -6.9160 nc         1 3QT      -0.506800
      9 C5          -4.2850     0.0000     0.0320 c3         1 3QT       0.044100
     10 N5          -5.3870    -1.3670    -6.6420 na         1 3QT       0.073400
     11 C6          -4.7870    -1.4210     0.0300 cd         1 3QT      -0.134300
     12 N6          -5.4190    -3.3970     0.7070 nd         1 3QT      -0.287600
     13 C7          -5.5710    -2.7680    -3.2980 cd         1 3QT       0.523800
     14 C8          -5.5910    -2.4400    -4.7450 cd         1 3QT      -0.384800
     15 C9          -5.9930    -3.2990    -5.7870 cd         1 3QT       0.360200
     16 C10         -5.2220    -1.2530    -5.3100 cc         1 3QT      -0.060300
     17 C12         -5.9830    -4.0440    -2.8650 cd         1 3QT      -0.267300
     18 C13         -5.9700    -4.3530    -1.5420 cc         1 3QT      -0.015000
     19 C14         -5.5380    -3.3840    -0.6140 cc         1 3QT      -0.094300
     20 C15         -4.9680    -2.2100     1.1150 cc         1 3QT       0.017600
     21 C16         -2.1100    -0.0000     1.2230 ca         1 3QT      -0.104000
     22 C17         -0.7060     0.0050     1.2290 ca         1 3QT      -0.153300
     23 C18          0.0220     0.0050     2.4330 ca         1 3QT      -0.077000
     24 C19          1.3860     0.0100     2.3620 ca         1 3QT      -0.258300
     25 C20          2.0180     0.0000     1.1200 ca         1 3QT       0.431200
     26 H2          -0.2030     0.0010    -2.1540 ha         1 3QT       0.149000
     27 H3          -2.6410     0.0040    -2.1030 ha         1 3QT       0.138000
     28 H5          -4.6490     0.5110     0.9150 hc         1 3QT       0.065200
     29 H5A         -4.6430     0.5110    -0.8540 hc         1 3QT       0.065200
     30 H9          -6.3440    -4.3170    -5.6720 h4         1 3QT       0.053100
     31 H10         -4.8620    -0.3780    -4.7820 h4         1 3QT       0.188000
     32 H11         -4.0640    -0.0440    -7.5800 h1         1 3QT       0.059700
     33 H11A        -5.3330    -0.7000    -8.6240 h1         1 3QT       0.059700
     34 H11B        -5.7260     0.5430    -7.4280 h1         1 3QT       0.059700
     35 H12         -6.3120    -4.7800    -3.5890 ha         1 3QT       0.148000
     36 H13         -6.2860    -5.3320    -1.2040 ha         1 3QT       0.163000
     37 H15         -4.7810    -1.9240     2.1430 h4         1 3QT       0.184000
     38 H16         -2.6580    -0.0000     2.1570 ha         1 3QT       0.133000
     39 H18         -0.4850     0.0130     3.3900 ha         1 3QT       0.139000
     40 H19          1.9770     0.0100     3.2700 ha         1 3QT       0.137000
     41 H20          3.1000     0.0050     1.0780 h4         1 3QT       0.022100
     42 C11         -5.1090    -0.3240    -7.6330 c3         1 3QT       0.060600
@<TRIPOS>BOND
     1     3     1 ar  
     2    22     1 ar  
     3     1     2 ar  
     4     2    25 ar  
     5     5     3 ar  
     6     3    26 1   
     7    11     4 1   
     8     4    19 1   
     9     4     6 1   
    10     7     5 ar  
    11     5    27 1   
    12     6    13 2   
    13     9     7 1   
    14     7    21 ar  
    15    15     8 2   
    16     8    10 1   
    17     9    11 1   
    18     9    28 1   
    19     9    29 1   
    20    16    10 1   
    21    10    42 1   
    22    20    11 2   
    23    20    12 1   
    24    12    19 2   
    25    13    17 1   
    26    13    14 1   
    27    15    14 1   
    28    14    16 2   
    29    15    30 1   
    30    16    31 1   
    31    42    32 1   
    32    42    33 1   
    33    42    34 1   
    34    18    17 2   
    35    17    35 1   
    36    19    18 1   
    37    18    36 1   
    38    20    37 1   
    39    21    22 ar  
    40    21    38 1   
    41    22    23 ar  
    42    23    24 ar  
    43    23    39 1   
    44    24    25 ar  
    45    24    40 1   
    46    25    41 1   
@<TRIPOS>SUBSTRUCTURE
     1 3QT         1 TEMP              0 ****  ****    0 ROOT
