@<TRIPOS>MOLECULE
3QU
   26    27     1     0     0
SMALL
bcc


@<TRIPOS>ATOM
      1 OAA          0.0000     0.0000     0.0000 o          1 3QU      -0.450000
      2 OAB          1.8280     0.0000     1.0550 o          1 3QU      -0.450000
      3 CAC          5.7030     3.3840    -5.4360 ca         1 3QU       0.411200
      4 CAD          3.7100     3.3930    -6.5920 ca         1 3QU       0.411200
      5 CAE          5.5010     2.0810    -5.0220 ca         1 3QU      -0.218300
      6 CAF          3.4380     2.0930    -6.2120 ca         1 3QU      -0.218300
      7 CAG          4.0310    -0.0090    -2.4800 ca         1 3QU      -0.117000
      8 CAH          1.9570     0.0020    -3.6770 ca         1 3QU      -0.117000
      9 CAI          3.3400    -0.0040    -1.2830 ca         1 3QU      -0.005500
     10 CAJ          1.2660     0.0010    -2.4790 ca         1 3QU      -0.005500
     11 NAL          4.8150     3.9950    -6.1950 nb         1 3QU      -0.580000
     12 CAM          4.3490     1.4180    -5.4130 ca         1 3QU      -0.062300
     13 CAN          3.3400    -0.0040    -3.6770 ca         1 3QU      -0.028300
     14 CAO          1.9580     0.0010    -1.2820 ca         1 3QU      -0.453200
     15 NAP          1.2180     0.0000     0.0000 no         1 3QU       1.048200
     16 HAD          3.0040     3.9280    -7.2150 h4         1 3QU      -0.018900
     17 HAE          6.2350     1.5840    -4.3980 ha         1 3QU       0.115000
     18 HAF          2.5280     1.6050    -6.5390 ha         1 3QU       0.115000
     19 HAG          5.1140    -0.0130    -2.4800 ha         1 3QU       0.118000
     20 HAH          1.4150     0.0040    -4.6150 ha         1 3QU       0.118000
     21 HAI          3.8820    -0.0060    -0.3450 ha         1 3QU       0.133000
     22 HAJ          0.1830     0.0050    -2.4780 ha         1 3QU       0.133000
     23 CAK          4.0930    -0.0030    -4.9820 c3         1 3QU       0.079200
     24 HAC          6.6000     3.9100    -5.1320 h4         1 3QU      -0.018900
     25 HAK          3.5050    -0.5090    -5.7390 hc         1 3QU       0.030200
     26 HAKA         5.0370    -0.5180    -4.8550 hc         1 3QU       0.030200
@<TRIPOS>BOND
     1     1    15 1   
     2     2    15 1   
     3     3     5 ar  
     4     3    11 ar  
     5     3    24 1   
     6     4     6 ar  
     7     4    11 ar  
     8     4    16 1   
     9     5    12 ar  
    10     5    17 1   
    11     6    12 ar  
    12     6    18 1   
    13     7     9 ar  
    14     7    13 ar  
    15     7    19 1   
    16     8    10 ar  
    17     8    13 ar  
    18     8    20 1   
    19     9    14 ar  
    20     9    21 1   
    21    10    14 ar  
    22    10    22 1   
    23    12    23 1   
    24    13    23 1   
    25    14    15 1   
    26    23    25 1   
    27    23    26 1   
@<TRIPOS>SUBSTRUCTURE
     1 3QU         1 TEMP              0 ****  ****    0 ROOT
