@<TRIPOS>MOLECULE
molecule
   26    27     1     0     0
SMALL
bcc


@<TRIPOS>ATOM
      1 OAA          0.0000     0.0000     0.0000 o          1 3QU      -0.205000
      2 OAB          1.8280     0.0000     1.0550 o          1 3QU      -0.205000
      3 CAC          5.7030     3.3840    -5.4360 ca         1 3QU       0.425200
      4 CAD          3.7100     3.3930    -6.5920 ca         1 3QU       0.425200
      5 CAE          5.5010     2.0810    -5.0220 ca         1 3QU      -0.249300
      6 CAF          3.4380     2.0930    -6.2120 ca         1 3QU      -0.249300
      7 CAG          4.0310    -0.0090    -2.4800 ca         1 3QU      -0.130000
      8 CAH          1.9570     0.0020    -3.6770 ca         1 3QU      -0.130000
      9 CAI          3.3400    -0.0040    -1.2830 ca         1 3QU      -0.066000
     10 CAJ          1.2660     0.0010    -2.4790 ca         1 3QU      -0.066000
     11 NAL          4.8150     3.9950    -6.1950 nb         1 3QU      -0.687000
     12 CAM          4.3490     1.4180    -5.4130 ca         1 3QU      -0.050300
     13 CAN          3.3400    -0.0040    -3.6770 ca         1 3QU      -0.037300
     14 CAO          1.9580     0.0010    -1.2820 ca         1 3QU      -0.157200
     15 NAP          1.2180     0.0000     0.0000 no         1 3QU       0.293200
     16 HAD          3.0040     3.9280    -7.2150 h4         1 3QU       0.026100
     17 HAE          6.2350     1.5840    -4.3980 ha         1 3QU       0.137000
     18 HAF          2.5280     1.6050    -6.5390 ha         1 3QU       0.137000
     19 HAG          5.1140    -0.0130    -2.4800 ha         1 3QU       0.147000
     20 HAH          1.4150     0.0040    -4.6150 ha         1 3QU       0.147000
     21 HAI          3.8820    -0.0060    -0.3450 ha         1 3QU       0.167000
     22 HAJ          0.1830     0.0050    -2.4780 ha         1 3QU       0.167000
     23 CAK          4.0930    -0.0030    -4.9820 c3         1 3QU       0.003200
     24 HAC          6.6000     3.9100    -5.1320 h4         1 3QU       0.026100
     25 HAK          3.5050    -0.5090    -5.7390 hc         1 3QU       0.065700
     26 HAKA         5.0370    -0.5180    -4.8550 hc         1 3QU       0.065700
@<TRIPOS>BOND
     1     1    15 1
     2     3    11 ar
     3     4    11 ar
     4     5     3 ar
     5     6     4 ar
     6     8    13 ar
     7     9     7 ar
     8    10     8 ar
     9    10    14 ar
    10    23    12 1
    11    12     5 ar
    12    12     6 ar
    13    13     7 ar
    14    13    23 1
    15    14     9 ar
    16    15     2 1
    17    15    14 1
    18     3    24 1
    19     4    16 1
    20     5    17 1
    21     6    18 1
    22     7    19 1
    23     8    20 1
    24     9    21 1
    25    10    22 1
    26    23    25 1
    27    23    26 1
@<TRIPOS>SUBSTRUCTURE
     1 3QU         1 TEMP              0 ****  ****    0 ROOT
