@<TRIPOS>MOLECULE
molecule
   19    20     1     0     0
SMALL
bcc


@<TRIPOS>ATOM
      1 C1           0.0000     0.0000     0.0000 ca         1 3QV       0.207100
      2 N1           2.5200    -0.3090     7.0790 n1         1 3QV      -0.338800
      3 O1          -0.6730    -0.0160    -1.1780 oh         1 3QV      -0.505100
      4 C2           1.3940     0.0000     0.0000 ca         1 3QV      -0.184000
      5 O2          -0.7160    -1.1100     5.4640 o          1 3QV      -0.530500
      6 C3           2.0850     0.0000     1.1750 ca         1 3QV      -0.075000
      7 O3          -0.6980     0.0800     3.5680 os         1 3QV      -0.307200
      8 C4           1.3900    -0.0100     2.3950 ca         1 3QV      -0.178800
      9 C5           2.0960    -0.0520     3.6230 cc         1 3QV       0.023800
     10 C6           1.3670    -0.2690     4.7860 cd         1 3QV      -0.118900
     11 C7           2.0000    -0.2940     6.0690 ch         1 3QV       0.217500
     12 C8          -0.0860    -0.4700     4.6420 c          1 3QV       0.747800
     13 C9          -0.0180     0.0290     2.3980 ca         1 3QV       0.151100
     14 C10         -0.7030     0.0240     1.1930 ca         1 3QV      -0.192000
     15 HO1         -0.9590    -0.9040    -1.3180 ho         1 3QV       0.430000
     16 H2           2.2030    -0.0650    -0.7180 ha         1 3QV       0.161000
     17 H3           3.1200     0.2970     1.0510 ha         1 3QV       0.148000
     18 H5           3.1090     0.3310     3.6120 ha         1 3QV       0.158000
     19 H10         -1.7000     0.0990     1.6100 ha         1 3QV       0.184000
@<TRIPOS>BOND
     1    14     1 ar  
     2     1     3 1   
     3     1     4 ar  
     4     2    11 3   
     5     3    15 1   
     6     6     4 ar  
     7     4    16 1   
     8     5    12 2   
     9     8     6 ar  
    10     6    17 1   
    11    12     7 1   
    12     7    13 1   
    13    13     8 ar  
    14     9     8 1   
    15    10     9 2   
    16     9    18 1   
    17    12    10 1   
    18    11    10 1   
    19    13    14 ar  
    20    14    19 1   
@<TRIPOS>SUBSTRUCTURE
     1 3QV         1 TEMP              0 ****  ****    0 ROOT
