@<TRIPOS>MOLECULE
3QV
   19    20     1     0     0
SMALL
bcc


@<TRIPOS>ATOM
      1 C1           0.0000     0.0000     0.0000 ca         1 3QV       0.247100
      2 N1           2.5200    -0.3090     7.0790 n1         1 3QV      -0.360800
      3 O1          -0.6730    -0.0160    -1.1780 oh         1 3QV      -0.492100
      4 C2           1.3940     0.0000     0.0000 ca         1 3QV      -0.181000
      5 O2          -0.7160    -1.1100     5.4640 o          1 3QV      -0.578500
      6 C3           2.0850     0.0000     1.1750 ca         1 3QV      -0.036000
      7 O3          -0.6980     0.0800     3.5680 os         1 3QV      -0.287200
      8 C4           1.3900    -0.0100     2.3950 ca         1 3QV      -0.199800
      9 C5           2.0960    -0.0520     3.6230 cc         1 3QV       0.060800
     10 C6           1.3670    -0.2690     4.7860 cd         1 3QV      -0.086900
     11 C7           2.0000    -0.2940     6.0690 ch         1 3QV       0.208500
     12 C8          -0.0860    -0.4700     4.6420 c          1 3QV       0.800800
     13 C9          -0.0180     0.0290     2.3980 ca         1 3QV       0.163100
     14 C10         -0.7030     0.0240     1.1930 ca         1 3QV      -0.197000
     15 HO1         -0.9590    -0.9040    -1.3180 ho         1 3QV       0.412000
     16 H2           2.2030    -0.0650    -0.7180 ha         1 3QV       0.134000
     17 H3           3.1200     0.2970     1.0510 ha         1 3QV       0.115000
     18 H5           3.1090     0.3310     3.6120 ha         1 3QV       0.121000
     19 H10         -1.7000     0.0990     1.6100 ha         1 3QV       0.155000
@<TRIPOS>BOND
     1     1     3 1   
     2     1     4 ar  
     3     1    14 ar  
     4     2    11 3   
     5     3    15 1   
     6     4     6 ar  
     7     4    16 1   
     8     5    12 2   
     9     6     8 ar  
    10     6    17 1   
    11     7    12 1   
    12     7    13 1   
    13     8     9 1   
    14     8    13 ar  
    15     9    10 2   
    16     9    18 1   
    17    10    11 1   
    18    10    12 1   
    19    13    14 ar  
    20    14    19 1   
@<TRIPOS>SUBSTRUCTURE
     1 3QV         1 TEMP              0 ****  ****    0 ROOT
