@<TRIPOS>MOLECULE
3QW
   60    64     1     0     0
SMALL
bcc


@<TRIPOS>ATOM
      1 C14          0.0000     0.0000     0.0000 cc         1 3QW      -0.249300
      2 C5           4.0470     0.2890    -2.5210 ca         1 3QW      -0.150200
      3 C6           5.2700     0.6330    -3.0870 ca         1 3QW      -0.295300
      4 C11          1.9120    -0.5640    -2.4980 cc         1 3QW      -0.137200
      5 C7           5.4880     0.3580    -4.4270 ca         1 3QW       0.483200
      6 C9           3.3800    -0.5630    -4.6870 ca         1 3QW       0.487200
      7 C10          3.0790    -0.3240    -3.3470 ca         1 3QW      -0.255100
      8 C12          2.2240    -0.1040    -1.2620 cd         1 3QW      -0.117300
      9 C13          1.3670     0.0000     0.0000 cd         1 3QW      -0.254100
     10 C3           5.3660     0.1110     0.2890 c3         1 3QW      -0.015100
     11 C1           4.6840     2.3940    -0.4630 c3         1 3QW      -0.015100
     12 N4           3.5020     0.4080    -1.2670 na         1 3QW       0.400600
     13 N8           4.5570    -0.2230    -5.1740 nb         1 3QW      -0.586000
     14 N15         -0.4070    -0.0000     1.2860 na         1 3QW       0.461400
     15 N17          0.7270    -0.0070     2.1050 nc         1 3QW      -0.655800
     16 C18          1.7900     0.0000     1.3450 cd         1 3QW       0.381200
     17 N19          6.7110     0.6990    -5.0050 nu         1 3QW      -0.402600
     18 C20          6.9880     0.3290    -6.3120 ca         1 3QW       0.536200
     19 C21          8.1590     0.7610    -6.9380 ca         1 3QW      -0.453600
     20 C22          8.3930     0.3670    -8.2410 ca         1 3QW       0.501200
     21 N23          7.5070    -0.4020    -8.8560 nb         1 3QW      -0.720000
     22 C24          6.4040    -0.7970    -8.2370 ca         1 3QW       0.729900
     23 N25          6.1440    -0.4470    -6.9870 nb         1 3QW      -0.635000
     24 N26          5.5020    -1.5990    -8.9140 nh         1 3QW      -0.439300
     25 C27          4.1630    -0.9960    -8.9230 c3         1 3QW       0.143800
     26 C28          3.1660    -1.9740    -9.5500 c3         1 3QW      -0.046900
     27 C29          3.6080    -2.3040   -10.9770 c3         1 3QW       0.173100
     28 C30          5.0240    -2.8860   -10.9430 c3         1 3QW      -0.046900
     29 C31          5.9680    -1.8820   -10.2770 c3         1 3QW       0.143800
     30 O32          2.7120    -3.2590   -11.5470 os         1 3QW      -0.408600
     31 C33          2.5740    -3.1530   -12.9650 c3         1 3QW       0.249700
     32 H1          -0.6400    -0.0690    -0.8710 h4         1 3QW       0.152000
     33 H2           6.0390     1.1080    -2.4900 ha         1 3QW       0.118000
     34 H3           0.9270    -0.8590    -2.8390 ha         1 3QW       0.128000
     35 H4           2.6470    -1.0360    -5.3300 h4         1 3QW      -0.022900
     36 H5           5.5290     0.1820     1.3580 hc         1 3QW       0.016033
     37 H6           5.1660    -0.9200     0.0220 hc         1 3QW       0.016033
     38 H7           6.2510     0.4540    -0.2350 hc         1 3QW       0.016033
     39 H8           4.0670     2.8100    -1.2510 hc         1 3QW       0.016033
     40 H9           4.5820     2.9960     0.4320 hc         1 3QW       0.016033
     41 H10          5.7200     2.3900    -0.7800 hc         1 3QW       0.016033
     42 H11          3.4860     1.0590     0.7220 h1         1 3QW       0.072700
     43 H12         -1.3570    -0.0020     1.6000 hn         1 3QW       0.149700
     44 H13          2.8180    -0.0010     1.6890 h4         1 3QW       0.017100
     45 H14          7.4020     1.1810    -4.4640 hn         1 3QW       0.286800
     46 H15          8.8680     1.3900    -6.4130 ha         1 3QW       0.123000
     47 H16          9.2920     0.6850    -8.7550 h4         1 3QW      -0.022900
     48 H17          3.8610    -0.7760    -7.9070 h1         1 3QW       0.028700
     49 H18          4.1850    -0.0820    -9.5050 h1         1 3QW       0.028700
     50 H19          2.1820    -1.5190    -9.5730 hc         1 3QW       0.028700
     51 H20          3.1360    -2.8830    -8.9620 hc         1 3QW       0.028700
     52 H21          3.6060    -1.3990   -11.5730 h1         1 3QW       0.006700
     53 H22          5.0210    -3.8090   -10.3760 hc         1 3QW       0.028700
     54 H23          5.3600    -3.0790   -11.9550 hc         1 3QW       0.028700
     55 H24          6.9670    -2.2990   -10.2360 h1         1 3QW       0.028700
     56 H25          5.9790    -0.9630   -10.8510 h1         1 3QW       0.028700
     57 H26          3.5350    -3.3190   -13.4350 h1         1 3QW      -0.013633
     58 H27          2.2130    -2.1640   -13.2200 h1         1 3QW      -0.013633
     59 H28          1.8670    -3.8960   -13.3160 h1         1 3QW      -0.013633
     60 C2           4.1800     0.9930    -0.1070 c3         1 3QW      -0.102000
@<TRIPOS>BOND
     1     1     9 2   
     2     1    14 1   
     3     1    32 1   
     4     2     3 ar  
     5     2     7 ar  
     6     2    12 1   
     7     3     5 ar  
     8     3    33 1   
     9     4     7 1   
    10     4     8 2   
    11     4    34 1   
    12     5    13 ar  
    13     5    17 1   
    14     6     7 ar  
    15     6    13 ar  
    16     6    35 1   
    17     8     9 1   
    18     8    12 1   
    19     9    16 1   
    20    10    36 1   
    21    10    37 1   
    22    10    38 1   
    23    10    60 1   
    24    11    39 1   
    25    11    40 1   
    26    11    41 1   
    27    11    60 1   
    28    12    60 1   
    29    14    15 1   
    30    14    43 1   
    31    15    16 2   
    32    16    44 1   
    33    17    18 1   
    34    17    45 1   
    35    18    19 ar  
    36    18    23 ar  
    37    19    20 ar  
    38    19    46 1   
    39    20    21 ar  
    40    20    47 1   
    41    21    22 ar  
    42    22    23 ar  
    43    22    24 1   
    44    24    25 1   
    45    24    29 1   
    46    25    26 1   
    47    25    48 1   
    48    25    49 1   
    49    26    27 1   
    50    26    50 1   
    51    26    51 1   
    52    27    28 1   
    53    27    30 1   
    54    27    52 1   
    55    28    29 1   
    56    28    53 1   
    57    28    54 1   
    58    29    55 1   
    59    29    56 1   
    60    30    31 1   
    61    31    57 1   
    62    31    58 1   
    63    31    59 1   
    64    42    60 1   
@<TRIPOS>SUBSTRUCTURE
     1 3QW         1 TEMP              0 ****  ****    0 ROOT
