@<TRIPOS>MOLECULE
molecule
   38    40     1     0     0
SMALL
bcc


@<TRIPOS>ATOM
      1 C1           0.0000     0.0000     0.0000 cc         1 3QX      -0.476900
      2 C2           1.4160     0.0000     0.0000 cc         1 3QX       0.413200
      3 N3           2.0860     0.0000     1.1140 nd         1 3QX      -0.446800
      4 N4           1.4400    -0.0010     2.3570 na         1 3QX       0.206200
      5 C5           0.0620    -0.0010     2.4170 cd         1 3QX      -0.215300
      6 C6          -0.6870    -0.0010     1.2210 cd         1 3QX       0.425600
      7 C7           1.9200    -0.0010     3.6190 cd         1 3QX      -0.042100
      8 C8           0.8800    -0.0020     4.4930 cc         1 3QX      -0.194000
      9 C9          -0.3010    -0.0020     3.7530 cc         1 3QX      -0.089000
     10 C10         -0.7390     0.0070    -1.2670 c          1 3QX       0.510700
     11 N11         -0.0760     0.1150    -2.4350 nz         1 3QX      -0.672400
     12 O12         -1.9530    -0.0870    -1.2640 o          1 3QX      -0.461100
     13 N13         -2.0650    -0.0020     1.2530 nu         1 3QX      -0.805600
     14 C14         -2.7820    -1.0700     1.9530 c3         1 3QX       0.212500
     15 C15         -2.9020    -2.3180     1.0530 c3         1 3QX      -0.103400
     16 C16         -4.2920    -2.9200     1.3200 c3         1 3QX      -0.081400
     17 C17         -4.9680    -2.0180     2.3720 c3         1 3QX      -0.099400
     18 C18         -4.2490    -0.6550     2.2220 c3         1 3QX       0.162300
     19 C19         -4.3570     0.1610     3.5130 c3         1 3QX      -0.113100
     20 F20         -4.7670     0.0640     1.1400 f          1 3QX      -0.230300
     21 H1           1.9490     0.0010    -0.9430 h4         1 3QX       0.019100
     22 H2           2.9690    -0.0000     3.8920 h4         1 3QX       0.201000
     23 H3           0.9550     0.0490     5.5730 ha         1 3QX       0.185000
     24 H4          -1.3100    -0.0030     4.1480 ha         1 3QX       0.171000
     25 H5           0.5210    -0.6790    -2.5540 hn         1 3QX       0.472133
     26 H6           0.4760     0.9500    -2.4290 hn         1 3QX       0.472133
     27 H7          -2.5760     0.7380     0.8130 hn         1 3QX       0.482800
     28 H8          -2.2850    -1.3230     2.8820 h1         1 3QX       0.080700
     29 H9          -2.1320    -3.0360     1.3110 hc         1 3QX       0.055700
     30 H10         -2.8170    -2.0330     0.0110 hc         1 3QX       0.055700
     31 H11         -4.8750    -2.9240     0.4070 hc         1 3QX       0.061200
     32 H12         -4.1910    -3.9270     1.7070 hc         1 3QX       0.061200
     33 H13         -6.0250    -1.9130     2.1570 hc         1 3QX       0.072200
     34 H14         -4.8150    -2.4180     3.3670 hc         1 3QX       0.072200
     35 H15         -3.9080    -0.3930     4.3290 hc         1 3QX       0.055367
     36 H16         -5.4000     0.3480     3.7350 hc         1 3QX       0.055367
     37 H17         -3.8390     1.1040     3.3890 hc         1 3QX       0.055367
     38 H113        -0.7330     0.1920    -3.1860 hn         1 3QX       0.472133
@<TRIPOS>BOND
     1    19    18 1   
     2    17    18 1   
     3    17    16 1   
     4    18    20 1   
     5    18    14 1   
     6    16    15 1   
     7    14    15 1   
     8    14    13 1   
     9    12    10 2   
    10    13     6 1   
    11    10     1 1   
    12    10    11 1   
    13     6     1 2   
    14     6     5 1   
    15     1     2 1   
    16     5     9 2   
    17     5     4 1   
    18     9     8 1   
    19     2     3 2   
    20     4     3 1   
    21     4     7 1   
    22     8     7 2   
    23     2    21 1   
    24     7    22 1   
    25     8    23 1   
    26     9    24 1   
    27    11    25 1   
    28    11    26 1   
    29    13    27 1   
    30    14    28 1   
    31    15    29 1   
    32    15    30 1   
    33    16    31 1   
    34    16    32 1   
    35    17    33 1   
    36    17    34 1   
    37    19    35 1   
    38    19    36 1   
    39    19    37 1   
    40    38    11 1   
@<TRIPOS>SUBSTRUCTURE
     1 3QX         1 TEMP              0 ****  ****    0 ROOT
