@<TRIPOS>MOLECULE
3QX
   38    40     1     0     0
SMALL
bcc


@<TRIPOS>ATOM
      1 C1           0.0000     0.0000     0.0000 cc         1 3QX      -0.520900
      2 C2           1.4160     0.0000     0.0000 cc         1 3QX       0.481200
      3 N3           2.0860     0.0000     1.1140 nd         1 3QX      -0.575800
      4 N4           1.4400    -0.0010     2.3570 na         1 3QX       0.714200
      5 C5           0.0620    -0.0010     2.4170 cd         1 3QX      -0.402300
      6 C6          -0.6870    -0.0010     1.2210 cd         1 3QX       0.311600
      7 C7           1.9200    -0.0010     3.6190 cd         1 3QX      -0.227100
      8 C8           0.8800    -0.0020     4.4930 cc         1 3QX      -0.143000
      9 C9          -0.3010    -0.0020     3.7530 cc         1 3QX      -0.073000
     10 C10         -0.7390     0.0070    -1.2670 c          1 3QX       0.366700
     11 N11         -0.0760     0.1150    -2.4350 nz         1 3QX       0.208600
     12 O12         -1.9530    -0.0870    -1.2640 o          1 3QX      -0.496100
     13 N13         -2.0650    -0.0020     1.2530 nu         1 3QX      -0.366600
     14 C14         -2.7820    -1.0700     1.9530 c3         1 3QX       0.098500
     15 C15         -2.9020    -2.3180     1.0530 c3         1 3QX      -0.044400
     16 C16         -4.2920    -2.9200     1.3200 c3         1 3QX      -0.018400
     17 C17         -4.9680    -2.0180     2.3720 c3         1 3QX      -0.042400
     18 C18         -4.2490    -0.6550     2.2220 c3         1 3QX       0.150300
     19 C19         -4.3570     0.1610     3.5130 c3         1 3QX      -0.017100
     20 F20         -4.7670     0.0640     1.1400 f          1 3QX      -0.217300
     21 H1           1.9490     0.0010    -0.9430 h4         1 3QX      -0.036900
     22 H2           2.9690    -0.0000     3.8920 h4         1 3QX       0.167000
     23 H3           0.9550     0.0490     5.5730 ha         1 3QX       0.150000
     24 H4          -1.3100    -0.0030     4.1480 ha         1 3QX       0.139000
     25 H5           0.5210    -0.6790    -2.5540 hn         1 3QX       0.241800
     26 H6           0.4760     0.9500    -2.4290 hn         1 3QX       0.241800
     27 H7          -2.5760     0.7380     0.8130 hn         1 3QX       0.334800
     28 H8          -2.2850    -1.3230     2.8820 h1         1 3QX       0.066700
     29 H9          -2.1320    -3.0360     1.3110 hc         1 3QX       0.025700
     30 H10         -2.8170    -2.0330     0.0110 hc         1 3QX       0.025700
     31 H11         -4.8750    -2.9240     0.4070 hc         1 3QX       0.028700
     32 H12         -4.1910    -3.9270     1.7070 hc         1 3QX       0.028700
     33 H13         -6.0250    -1.9130     2.1570 hc         1 3QX       0.042700
     34 H14         -4.8150    -2.4180     3.3670 hc         1 3QX       0.042700
     35 H15         -3.9080    -0.3930     4.3290 hc         1 3QX       0.023700
     36 H16         -5.4000     0.3480     3.7350 hc         1 3QX       0.023700
     37 H17         -3.8390     1.1040     3.3890 hc         1 3QX       0.023700
     38 H113        -0.7330     0.1920    -3.1860 hn         1 3QX       0.241800
@<TRIPOS>BOND
     1     1     2 1   
     2     1     6 2   
     3     1    10 1   
     4     2     3 2   
     5     2    21 1   
     6     3     4 1   
     7     4     5 1   
     8     4     7 1   
     9     5     6 1   
    10     5     9 2   
    11     6    13 1   
    12     7     8 2   
    13     7    22 1   
    14     8     9 1   
    15     8    23 1   
    16     9    24 1   
    17    10    11 1   
    18    10    12 2   
    19    11    25 1   
    20    11    26 1   
    21    11    38 1   
    22    13    14 1   
    23    13    27 1   
    24    14    15 1   
    25    14    18 1   
    26    14    28 1   
    27    15    16 1   
    28    15    29 1   
    29    15    30 1   
    30    16    17 1   
    31    16    31 1   
    32    16    32 1   
    33    17    18 1   
    34    17    33 1   
    35    17    34 1   
    36    18    19 1   
    37    18    20 1   
    38    19    35 1   
    39    19    36 1   
    40    19    37 1   
@<TRIPOS>SUBSTRUCTURE
     1 3QX         1 TEMP              0 ****  ****    0 ROOT
