@<TRIPOS>MOLECULE
3QY
   51    55     1     0     0
SMALL
bcc


@<TRIPOS>ATOM
      1 C4           0.0000     0.0000     0.0000 c3         1 3QY      -0.046900
      2 C5           1.5310     0.0000     0.0000 c3         1 3QY       0.144800
      3 C11          5.3880     0.3610     0.2800 ca         1 3QY       0.500200
      4 C7           1.5880    -1.2060     2.1010 c3         1 3QY       0.144800
      5 C8           0.0590    -1.2410     2.1640 c3         1 3QY      -0.046900
      6 C9           3.3980     0.1300     1.4220 ca         1 3QY       0.729900
      7 C12          6.0680     0.3900     1.4810 ca         1 3QY      -0.452600
      8 C13          5.3340     0.2790     2.6650 ca         1 3QY       0.535200
      9 C3          -0.5060    -1.2410     0.7400 c3         1 3QY       0.173100
     10 O2          -1.9340    -1.2170     0.7930 os         1 3QY      -0.408600
     11 N6           2.0210     0.0000     1.3840 nh         1 3QY      -0.438300
     12 N10          4.0680     0.2330     0.2840 nb         1 3QY      -0.720000
     13 N14          4.0130     0.1490     2.5950 nb         1 3QY      -0.634000
     14 N15          5.9750     0.3030     3.8940 nu         1 3QY      -0.401600
     15 C16          5.2250     0.3030     5.0710 ca         1 3QY       0.484200
     16 C17          5.8740     0.4380     6.2880 ca         1 3QY      -0.292300
     17 C18          5.1170     0.4360     7.4540 ca         1 3QY      -0.173200
     18 C19          3.7170     0.2960     7.3420 ca         1 3QY      -0.253100
     19 C20          3.1920     0.3290     8.7060 cc         1 3QY      -0.142200
     20 C21          4.2560     0.4800     9.5340 cd         1 3QY      -0.138300
     21 N22          5.4140     0.5450     8.7910 na         1 3QY       0.361600
     22 C24          4.1830     0.5620    11.0100 cd         1 3QY      -0.255100
     23 C25          3.0470     0.5000    11.7680 cc         1 3QY      -0.244300
     24 N26          3.4140     0.6140    13.0600 na         1 3QY       0.460400
     25 N28          4.8070     0.7500    13.1100 nc         1 3QY      -0.654800
     26 C29          5.2730     0.7140    11.8910 cd         1 3QY       0.394200
     27 C30          3.1460     0.1650     6.0770 ca         1 3QY       0.488200
     28 N31          3.9050     0.1790     5.0010 nb         1 3QY      -0.582000
     29 H1          -0.3600     0.8910     0.5010 hc         1 3QY       0.029200
     30 H2          -0.3600    -0.0180    -1.0210 hc         1 3QY       0.029200
     31 H3           1.8900    -0.8860    -0.5090 h1         1 3QY       0.027700
     32 H4           1.8900     0.8860    -0.5090 h1         1 3QY       0.027700
     33 H5           5.9270     0.4450    -0.6560 h4         1 3QY      -0.021900
     34 H6           1.9890    -1.1900     3.1070 h1         1 3QY       0.027700
     35 H7           1.9460    -2.0840     1.5780 h1         1 3QY       0.027700
     36 H8          -0.3000    -0.3680     2.6950 hc         1 3QY       0.029200
     37 H9          -0.2600    -2.1400     2.6780 hc         1 3QY       0.029200
     38 H10          7.1460     0.4950     1.5050 ha         1 3QY       0.123000
     39 H11         -0.1730    -2.1310     0.2210 h1         1 3QY       0.006700
     40 H12         -3.6030    -2.4110     0.9810 h1         1 3QY      -0.013633
     41 H13         -2.3640    -3.0070    -0.1330 h1         1 3QY      -0.013633
     42 H14         -2.1010    -3.1000     1.6140 h1         1 3QY      -0.013633
     43 H15          6.9750     0.2950     3.9380 hn         1 3QY       0.288800
     44 H16          6.9140     0.7360     6.3180 ha         1 3QY       0.112000
     45 H17          2.1530     0.2490     9.0000 ha         1 3QY       0.129000
     46 H18          6.3340     0.6550     9.1690 hn         1 3QY       0.115700
     47 H19          2.0360     0.3810    11.3970 h4         1 3QY       0.152000
     48 H20          2.7970     0.6050    13.8480 hn         1 3QY       0.149700
     49 H21          6.3150     0.7950    11.6050 h4         1 3QY       0.000100
     50 H22          2.0720     0.0620     5.9780 h4         1 3QY      -0.021900
     51 C1          -2.5370    -2.5120     0.8150 c3         1 3QY       0.249700
@<TRIPOS>BOND
     1     1     2 1   
     2     1     9 1   
     3     1    29 1   
     4     1    30 1   
     5     2    11 1   
     6     2    31 1   
     7     2    32 1   
     8     3     7 ar  
     9     3    12 ar  
    10     3    33 1   
    11     4     5 1   
    12     4    11 1   
    13     4    34 1   
    14     4    35 1   
    15     5     9 1   
    16     5    36 1   
    17     5    37 1   
    18     6    11 1   
    19     6    12 ar  
    20     6    13 ar  
    21     7     8 ar  
    22     7    38 1   
    23     8    13 ar  
    24     8    14 1   
    25     9    10 1   
    26     9    39 1   
    27    10    51 1   
    28    14    15 1   
    29    14    43 1   
    30    15    16 ar  
    31    15    28 ar  
    32    16    17 ar  
    33    16    44 1   
    34    17    18 ar  
    35    17    21 1   
    36    18    19 1   
    37    18    27 ar  
    38    19    20 2   
    39    19    45 1   
    40    20    21 1   
    41    20    22 1   
    42    21    46 1   
    43    22    23 2   
    44    22    26 1   
    45    23    24 1   
    46    23    47 1   
    47    24    25 1   
    48    24    48 1   
    49    25    26 2   
    50    26    49 1   
    51    27    28 ar  
    52    27    50 1   
    53    40    51 1   
    54    41    51 1   
    55    42    51 1   
@<TRIPOS>SUBSTRUCTURE
     1 3QY         1 TEMP              0 ****  ****    0 ROOT
