@<TRIPOS>MOLECULE
molecule
   51    55     1     0     0
SMALL
bcc


@<TRIPOS>ATOM
      1 C4           0.0000     0.0000     0.0000 c3         1 3QY      -0.094400
      2 C5           1.5310     0.0000     0.0000 c3         1 3QY       0.176800
      3 C11          5.3880     0.3610     0.2800 ca         1 3QY       0.503200
      4 C7           1.5880    -1.2060     2.1010 c3         1 3QY       0.176800
      5 C8           0.0590    -1.2410     2.1640 c3         1 3QY      -0.094400
      6 C9           3.3980     0.1300     1.4220 ca         1 3QY       0.894900
      7 C12          6.0680     0.3900     1.4810 ca         1 3QY      -0.471600
      8 C13          5.3340     0.2790     2.6650 ca         1 3QY       0.735200
      9 C3          -0.5060    -1.2410     0.7400 c3         1 3QY       0.138100
     10 O2          -1.9340    -1.2170     0.7930 os         1 3QY      -0.424600
     11 N6           2.0210     0.0000     1.3840 nh         1 3QY      -0.676300
     12 N10          4.0680     0.2330     0.2840 nb         1 3QY      -0.819000
     13 N14          4.0130     0.1490     2.5950 nb         1 3QY      -0.745000
     14 N15          5.9750     0.3030     3.8940 nu         1 3QY      -0.862600
     15 C16          5.2250     0.3030     5.0710 ca         1 3QY       0.686200
     16 C17          5.8740     0.4380     6.2880 ca         1 3QY      -0.331300
     17 C18          5.1170     0.4360     7.4540 ca         1 3QY       0.018800
     18 C19          3.7170     0.2960     7.3420 ca         1 3QY      -0.258100
     19 C20          3.1920     0.3290     8.7060 cc         1 3QY      -0.180200
     20 C21          4.2560     0.4800     9.5340 cd         1 3QY       0.040700
     21 N22          5.4140     0.5450     8.7910 na         1 3QY      -0.177400
     22 C24          4.1830     0.5620    11.0100 cd         1 3QY      -0.263100
     23 C25          3.0470     0.5000    11.7680 cc         1 3QY      -0.086300
     24 N26          3.4140     0.6140    13.0600 na         1 3QY      -0.037600
     25 N28          4.8070     0.7500    13.1100 nc         1 3QY      -0.502800
     26 C29          5.2730     0.7140    11.8910 cd         1 3QY       0.341200
     27 C30          3.1460     0.1650     6.0770 ca         1 3QY       0.497200
     28 N31          3.9050     0.1790     5.0010 nb         1 3QY      -0.691000
     29 H1          -0.3600     0.8910     0.5010 hc         1 3QY       0.060450
     30 H2          -0.3600    -0.0180    -1.0210 hc         1 3QY       0.060450
     31 H3           1.8900    -0.8860    -0.5090 h1         1 3QY       0.055950
     32 H4           1.8900     0.8860    -0.5090 h1         1 3QY       0.055950
     33 H5           5.9270     0.4450    -0.6560 h4         1 3QY       0.025100
     34 H6           1.9890    -1.1900     3.1070 h1         1 3QY       0.055950
     35 H7           1.9460    -2.0840     1.5780 h1         1 3QY       0.055950
     36 H8          -0.3000    -0.3680     2.6950 hc         1 3QY       0.060450
     37 H9          -0.2600    -2.1400     2.6780 hc         1 3QY       0.060450
     38 H10          7.1460     0.4950     1.5050 ha         1 3QY       0.137000
     39 H11         -0.1730    -2.1310     0.2210 h1         1 3QY       0.032700
     40 H12         -3.6030    -2.4110     0.9810 h1         1 3QY       0.028700
     41 H13         -2.3640    -3.0070    -0.1330 h1         1 3QY       0.028700
     42 H14         -2.1010    -3.1000     1.6140 h1         1 3QY       0.028700
     43 H15          6.9750     0.2950     3.9380 hn         1 3QY       0.464800
     44 H16          6.9140     0.7360     6.3180 ha         1 3QY       0.130000
     45 H17          2.1530     0.2490     9.0000 ha         1 3QY       0.152000
     46 H18          6.3340     0.6550     9.1690 hn         1 3QY       0.296700
     47 H19          2.0360     0.3810    11.3970 h4         1 3QY       0.179000
     48 H20          2.7970     0.6050    13.8480 hn         1 3QY       0.335700
     49 H21          6.3150     0.7950    11.6050 h4         1 3QY       0.046100
     50 H22          2.0720     0.0620     5.9780 h4         1 3QY       0.028100
     51 C1          -2.5370    -2.5120     0.8150 c3         1 3QY       0.128700
@<TRIPOS>BOND
     1    24    25 1   
     2    24    23 1   
     3    25    26 2   
     4    23    22 2   
     5    26    22 1   
     6    22    20 1   
     7    20    19 2   
     8    20    21 1   
     9    19    18 1   
    10    21    17 1   
    11    18    17 ar  
    12    18    27 ar  
    13    17    16 ar  
    14    27    28 ar  
    15    16    15 ar  
    16    28    15 ar  
    17    51    10 1   
    18    15    14 1   
    19     1     2 1   
    20     1     9 1   
    21    10     9 1   
    22     2    11 1   
    23     9     5 1   
    24    14     8 1   
    25    13     8 ar  
    26    13     6 ar  
    27    11     6 1   
    28    11     4 1   
    29     5     4 1   
    30     8     7 ar  
    31     6    12 ar  
    32     7     3 ar  
    33    12     3 ar  
    34     1    29 1   
    35     1    30 1   
    36     2    31 1   
    37     2    32 1   
    38     3    33 1   
    39     4    34 1   
    40     4    35 1   
    41     5    36 1   
    42     5    37 1   
    43     7    38 1   
    44     9    39 1   
    45    51    40 1   
    46    51    41 1   
    47    51    42 1   
    48    14    43 1   
    49    16    44 1   
    50    19    45 1   
    51    21    46 1   
    52    23    47 1   
    53    24    48 1   
    54    26    49 1   
    55    27    50 1   
@<TRIPOS>SUBSTRUCTURE
     1 3QY         1 TEMP              0 ****  ****    0 ROOT
