@<TRIPOS>MOLECULE
3QZ
   54    52     1     0     0
SMALL
bcc


@<TRIPOS>ATOM
      1 CAA        -0.7390   -2.1070   -0.0730 c3        1 3QZ     -0.255000
      2 CAB         3.4140    1.8380    6.4510 c3        1 3QZ     -0.214000
      3 CAC         3.0170    3.8830    3.4250 c1        1 3QZ     -0.231000
      4 OAD         0.9390   -0.7630    0.9900 o         1 3QZ     -0.307000
      5 OAF         1.1990   -3.3840   -1.3580 oh        1 3QZ     -0.262000
      6 CAG         3.9480   -0.3780    8.4870 c1        1 3QZ     -0.118000
      7 CAH         5.5260   -0.5220    6.6100 c3        1 3QZ     -0.132000
      8 CAI         3.5660    1.4110   10.1110 c3        1 3QZ     -0.278000
      9 CAJ         5.6240   -1.0630    5.1980 c3        1 3QZ     -0.131000
     10 CAK         2.3410    0.4410    3.8020 c3        1 3QZ     -0.124000
     11 CAL         3.6440   -1.1420    0.4400 c3        1 3QZ     -0.133000
     12 CAM         2.5780    2.1930   10.8150 c1        1 3QZ     -0.036000
     13 CAN         2.7950    1.3700    2.6840 c3        1 3QZ     -0.058000
     14 CAO         3.0530   -2.1810   -0.4280 c2        1 3QZ     -0.176000
     15 CAP         0.6620   -1.6760    0.2010 c2        1 3QZ      0.284000
     16 CAQ         3.0980    0.1080    9.4830 c2        1 3QZ      0.191000
     17 CAR         4.0740   -0.5230    7.0820 c3        1 3QZ     -0.077000
     18 CAS         4.5300   -0.5960    4.3160 c2        1 3QZ     -0.177000
     19 CAT         3.4300    0.0430    4.7410 c2        1 3QZ     -0.097000
     20 CAU         5.1520   -1.1820    0.4470 c3        1 3QZ     -0.214000
     21 CAV         3.1960    0.3610    6.1870 c3        1 3QZ     -0.081000
     22 CAW         2.9160    2.7380    3.0940 c1        1 3QZ     -0.158000
     23 CAX         1.7270   -2.4080   -0.5320 c2        1 3QZ     -0.057000
     24 HAA        -0.8510   -3.1900    0.1850 hc        1 3QZ      0.111667
     25 HAAA       -0.9570   -1.9880   -1.1630 hc        1 3QZ      0.111667
     26 HAAB       -1.4650   -1.5030    0.5220 hc        1 3QZ      0.111667
     27 HAB         4.4940    2.1090    6.3740 hc        1 3QZ      0.082667
     28 HABA        2.8500    2.4480    5.7000 hc        1 3QZ      0.082667
     29 HABB        3.0500    2.1030    7.4730 hc        1 3QZ      0.082667
     30 HAC         4.2390    5.0400    6.1280 ha        1 3QZ      0.000000
     31 HACA        3.1070    4.8980    3.7160 ha        1 3QZ      0.221000
     32 HACB        4.0040    4.4440    5.9070 ha        1 3QZ      0.000000
     33 HOAF        1.9310   -3.8260   -1.8100 ho        1 3QZ      0.218000
     34 HAG         3.6880   -1.6040    6.9810 hc        1 3QZ      0.179000
     35 HAH         6.1470   -1.1450    7.3050 hc        1 3QZ      0.097000
     36 HAHA        5.9220    0.5250    6.6450 hc        1 3QZ      0.097000
     37 HAI         4.0660    2.0700    9.3450 hc        1 3QZ      0.165000
     38 HAIA        4.3610    1.1600   10.8800 hc        1 3QZ      0.165000
     39 HAJ         5.6030   -2.1880    5.2240 hc        1 3QZ      0.091500
     40 HAJA        6.6140   -0.7640    4.7580 hc        1 3QZ      0.091500
     41 HAK         1.5010    0.9280    4.3660 hc        1 3QZ      0.100500
     42 HAKA        1.9240   -0.4880    3.3210 hc        1 3QZ      0.100500
     43 HAL         3.2530   -1.2610    1.4920 hc        1 3QZ      0.107000
     44 HALA        3.2890   -0.1290    0.0990 hc        1 3QZ      0.107000
     45 HAM         2.1180    0.1210    6.4280 hc        1 3QZ      0.103000
     46 HAMA        1.5730    1.7570   10.9240 ha        1 3QZ      0.069000
     47 HAN         2.0430    1.2980    1.8450 hc        1 3QZ      0.108500
     48 HANA        3.7820    1.0130    2.2720 hc        1 3QZ      0.108500
     49 HAO         5.5590   -1.0350   -0.5820 hc        1 3QZ      0.076333
     50 HAOA        3.7630   -2.7880   -1.0170 ha        1 3QZ      0.128000
     51 HAS         5.5210   -2.1620    0.8360 hc        1 3QZ      0.076333
     52 HAT         4.6670   -0.8270    3.2450 ha        1 3QZ      0.126000
     53 HAU         5.5480   -0.3690    1.1040 hc        1 3QZ      0.076333
     54 OAE         2.1380   -0.5250    9.9720 o         1 3QZ     -0.352000
@<TRIPOS>BOND
     1    1   15 1   
     2    1   24 1   
     3    1   25 1   
     4    1   26 1   
     5    2   21 1   
     6    2   27 1   
     7    2   28 1   
     8    2   29 1   
     9    3   22 1   
    10    3   31 1   
    11    4   15 1   
    12    5   23 1   
    13    5   33 1   
    14    6   16 1   
    15    6   17 1   
    16    7    9 1   
    17    7   17 1   
    18    7   35 1   
    19    7   36 1   
    20    8   12 1   
    21    8   16 1   
    22    8   37 1   
    23    8   38 1   
    24    9   18 1   
    25    9   39 1   
    26    9   40 1   
    27   10   13 1   
    28   10   19 1   
    29   10   41 1   
    30   10   42 1   
    31   11   14 1   
    32   11   20 1   
    33   11   43 1   
    34   11   44 1   
    35   12   46 1   
    36   13   22 1   
    37   13   47 1   
    38   13   48 1   
    39   14   23 1   
    40   14   50 1   
    41   15   23 1   
    42   16   54 1   
    43   17   21 1   
    44   17   34 1   
    45   18   19 1   
    46   18   52 1   
    47   19   21 1   
    48   20   49 1   
    49   20   51 1   
    50   20   53 1   
    51   21   45 1   
    52   30   32 1   
@<TRIPOS>SUBSTRUCTURE
     1 3QZ         1 TEMP              0 ****  ****    0 ROOT
