@<TRIPOS>MOLECULE
molecule
   54    57     1     0     0
SMALL
bcc


@<TRIPOS>ATOM
      1 CAA          0.0000     0.0000     0.0000 c3         1 3QZ      -0.194100
      2 CAB          3.4600     1.9860     5.8800 c3         1 3QZ      -0.088100
      3 CAC          2.5640     1.1620     2.1400 c3         1 3QZ      -0.103100
      4 OAD          2.1110     0.7690    -0.7080 o          1 3QZ      -0.526100
      5 OAF          1.5580    -2.2020     0.9770 oh         1 3QZ      -0.591800
      6 CAG          5.3540     0.0000     7.9520 ce         1 3QZ      -0.263200
      7 CAH          6.0600     0.2620     5.6290 c3         1 3QZ      -0.049200
      8 CAI          3.0670     0.7490     8.7520 c3         1 3QZ      -0.180400
      9 CAJ          5.6060    -0.6110     4.4580 c3         1 3QZ      -0.075400
     10 CAK          1.8100     0.0030     4.6280 c3         1 3QZ      -0.087400
     11 CAL          4.6810    -0.7980     1.5090 c3         1 3QZ      -0.071400
     12 CAM          2.5450     0.2590     7.3840 c3         1 3QZ      -0.064400
     13 CAN          1.4140    -0.7120     3.3150 c3         1 3QZ      -0.056400
     14 CAO          3.6890    -1.1900     0.3310 c3         1 3QZ      -0.108400
     15 CAP          1.5060     0.0000     0.0000 c          1 3QZ       0.552100
     16 CAQ          4.3540    -0.0040     9.0260 c          1 3QZ       0.569300
     17 CAR          4.9810     0.2460     6.6960 c2         1 3QZ      -0.043400
     18 CAS          4.2410    -0.1230     3.9640 c3         1 3QZ      -0.063700
     19 CAT          3.2260    -0.3540     5.0720 c3         1 3QZ      -0.051700
     20 CAU          3.8100    -0.9430     2.7610 c3         1 3QZ      -0.061700
     21 CAV          3.5650     0.5160     6.2900 c3         1 3QZ      -0.026800
     22 CAW          2.4560    -0.3590     2.2710 c3         1 3QZ      -0.045000
     23 CAX          2.2600    -0.9600     0.8830 c3         1 3QZ       0.062800
     24 HAA         -0.3610    -0.6880     0.7550 hc         1 3QZ       0.065367
     25 HAAA        -0.3610    -0.3100    -0.9730 hc         1 3QZ       0.065367
     26 HAAB        -0.3610     0.9980     0.2180 hc         1 3QZ       0.065367
     27 HAB          3.9520     2.1310     4.9250 hc         1 3QZ       0.041033
     28 HABA         2.4170     2.2650     5.7950 hc         1 3QZ       0.041033
     29 HABB         3.9390     2.6050     6.6290 hc         1 3QZ       0.041033
     30 HAC          3.2920     1.4080     1.3770 hc         1 3QZ       0.047367
     31 HACA         1.5990     1.5700     1.8640 hc         1 3QZ       0.047367
     32 HACB         2.8770     1.5840     3.0870 hc         1 3QZ       0.047367
     33 HOAF         1.6370    -2.6700     0.1620 ho         1 3QZ       0.405000
     34 HAG          6.3890    -0.2290     8.1750 ha         1 3QZ       0.151000
     35 HAH          6.2150     1.2770     5.2850 hc         1 3QZ       0.055200
     36 HAHA         6.9820    -0.1330     6.0390 hc         1 3QZ       0.055200
     37 HAI          3.2640     1.8140     8.7110 hc         1 3QZ       0.069700
     38 HAIA         2.3400     0.5310     9.5250 hc         1 3QZ       0.069700
     39 HAJ          5.5230    -1.6410     4.7860 hc         1 3QZ       0.048700
     40 HAJA         6.3270    -0.5390     3.6530 hc         1 3QZ       0.048700
     41 HAK          1.1150    -0.2850     5.4070 hc         1 3QZ       0.046200
     42 HAKA         1.7510     1.0740     4.4750 hc         1 3QZ       0.046200
     43 HAL          5.0200     0.2250     1.3970 hc         1 3QZ       0.050700
     44 HALA         5.5190    -1.4840     1.5460 hc         1 3QZ       0.050700
     45 HAM          2.3470    -0.8050     7.4410 hc         1 3QZ       0.052700
     46 HAMA         1.6280     0.7840     7.1450 hc         1 3QZ       0.052700
     47 HAN          0.4390    -0.3700     2.9900 hc         1 3QZ       0.053200
     48 HANA         1.4000    -1.7840     3.4710 hc         1 3QZ       0.053200
     49 HAO          3.8210    -2.2310     0.0640 hc         1 3QZ       0.063200
     50 HAOA         3.8620    -0.5530    -0.5290 hc         1 3QZ       0.063200
     51 HAS          4.2870     0.9280     3.7070 hc         1 3QZ       0.067700
     52 HAT          3.2520    -1.3970     5.3640 hc         1 3QZ       0.059700
     53 HAU          3.6970    -1.9870     3.0300 hc         1 3QZ       0.069700
     54 OAE          4.5470    -0.5800    10.0760 o          1 3QZ      -0.524100
@<TRIPOS>BOND
     1    15     1 1
     2     1    24 1
     3     1    25 1
     4     1    26 1
     5     2    21 1
     6     2    27 1
     7     2    28 1
     8     2    29 1
     9     3    22 1
    10     3    30 1
    11     3    31 1
    12     3    32 1
    13     4    15 2
    14    16    54 2
    15    23     5 1
    16     5    33 1
    17    16     6 1
    18     6    17 2
    19     6    34 1
    20    17     7 1
    21     7     9 1
    22     7    35 1
    23     7    36 1
    24     8    12 1
    25     8    16 1
    26     8    37 1
    27     8    38 1
    28    18     9 1
    29     9    39 1
    30     9    40 1
    31    10    19 1
    32    10    13 1
    33    10    41 1
    34    10    42 1
    35    20    11 1
    36    11    14 1
    37    11    43 1
    38    11    44 1
    39    12    21 1
    40    12    45 1
    41    12    46 1
    42    13    22 1
    43    13    47 1
    44    13    48 1
    45    23    14 1
    46    14    49 1
    47    14    50 1
    48    15    23 1
    49    21    17 1
    50    19    18 1
    51    18    20 1
    52    18    51 1
    53    21    19 1
    54    19    52 1
    55    22    20 1
    56    20    53 1
    57    22    23 1
@<TRIPOS>SUBSTRUCTURE
     1 3QZ         1 TEMP              0 ****  ****    0 ROOT
