@<TRIPOS>MOLECULE
molecule
   50    54     1     0     0
SMALL
bcc


@<TRIPOS>ATOM
      1 C4           0.0000     0.0000     0.0000 c3         1 3R0      -0.094400
      2 C5           1.5300     0.0000     0.0000 c3         1 3R0       0.176800
      3 C11          5.3870     0.3630     0.2810 ca         1 3R0       0.504200
      4 C7           1.5870    -1.2060     2.1020 c3         1 3R0       0.176800
      5 C8           0.0590    -1.2420     2.1640 c3         1 3R0      -0.094400
      6 C9           3.3980     0.1320     1.4220 ca         1 3R0       0.895900
      7 C12          6.0670     0.3930     1.4830 ca         1 3R0      -0.470600
      8 C13          5.3340     0.2810     2.6660 ca         1 3R0       0.735200
      9 C3          -0.5050    -1.2420     0.7410 c3         1 3R0       0.138100
     10 O2          -1.9340    -1.2190     0.7930 os         1 3R0      -0.423600
     11 N6           2.0210     0.0000     1.3850 nh         1 3R0      -0.678300
     12 N10          4.0690     0.2360     0.2850 nb         1 3R0      -0.819000
     13 N14          4.0130     0.1510     2.5960 nb         1 3R0      -0.750000
     14 N15          5.9740     0.3060     3.8960 nu         1 3R0      -0.862600
     15 C16          5.2250     0.3050     5.0720 ca         1 3R0       0.657200
     16 C17          5.8690     0.4400     6.2890 ca         1 3R0      -0.265300
     17 C18          5.1030     0.4380     7.4600 ca         1 3R0       0.160400
     18 C19          3.7040     0.2960     7.3400 ca         1 3R0      -0.258500
     19 C20          3.1430     0.1680     6.0820 ca         1 3R0       0.464200
     20 N21          3.9050     0.1810     5.0050 nb         1 3R0      -0.661000
     21 N22          3.2060     0.3220     8.6310 na         1 3R0      -0.255300
     22 C23          4.2730     0.4770     9.4720 cc         1 3R0       0.544400
     23 N24          5.3840     0.5430     8.7760 nd         1 3R0      -0.627100
     24 C26          4.1870     0.5550    10.9460 cd         1 3R0      -0.349200
     25 C27          5.2420     0.7110    11.8180 cc         1 3R0      -0.051300
     26 N28          4.7350     0.7330    13.0640 na         1 3R0      -0.033600
     27 N30          3.3460     0.5890    12.9780 nc         1 3R0      -0.505800
     28 C31          3.0100     0.4890    11.7210 cd         1 3R0       0.350200
     29 H1          -0.3610     0.8900     0.5010 hc         1 3R0       0.059950
     30 H2          -0.3610    -0.0180    -1.0210 hc         1 3R0       0.059950
     31 H3           1.8900     0.8860    -0.5090 h1         1 3R0       0.056200
     32 H4           1.8900    -0.8860    -0.5090 h1         1 3R0       0.056200
     33 H5           5.9260     0.4470    -0.6550 h4         1 3R0       0.026100
     34 H6           1.9470    -2.0840     1.5790 h1         1 3R0       0.056200
     35 H7           1.9880    -1.1890     3.1080 h1         1 3R0       0.056200
     36 H8          -0.2600    -2.1410     2.6780 hc         1 3R0       0.059950
     37 H9          -0.3010    -0.3690     2.6940 hc         1 3R0       0.059950
     38 H10          7.1450     0.4980     1.5070 ha         1 3R0       0.138000
     39 H11         -0.1710    -2.1320     0.2210 h1         1 3R0       0.033700
     40 H12         -2.2540    -3.0270     1.7280 h1         1 3R0       0.028033
     41 H13         -3.6130    -2.4130     0.7760 h1         1 3R0       0.028033
     42 H14         -2.1950    -3.0860    -0.0390 h1         1 3R0       0.028033
     43 H15          6.9740     0.3100     3.9390 hn         1 3R0       0.466800
     44 H16          6.9060     0.7520     6.3210 ha         1 3R0       0.145000
     45 H17          2.0700     0.0640     5.9800 h4         1 3R0       0.022100
     46 H18          2.2450     0.2440     8.8980 hn         1 3R0       0.304700
     47 H20          6.2880     0.7990    11.5500 h4         1 3R0       0.196000
     48 H21          5.2630     0.8330    13.9090 hn         1 3R0       0.338700
     49 H22          2.0030     0.3680    11.3390 h4         1 3R0       0.048100
     50 C1          -2.5350    -2.5140     0.8160 c3         1 3R0       0.128700
@<TRIPOS>BOND
     1    26    27 1
     2    26    25 1
     3    27    28 2
     4    25    24 2
     5    28    24 1
     6    24    22 1
     7    22    21 1
     8    22    23 2
     9    21    18 1
    10    23    17 1
    11    18    19 ar
    12    18    17 ar
    13    19    20 ar
    14    17    16 ar
    15    20    15 ar
    16    16    15 ar
    17    15    14 1
    18    50    10 1
    19     1     2 1
    20     1     9 1
    21     2    11 1
    22    14     8 1
    23    10     9 1
    24     9     5 1
    25    13     8 ar
    26    13     6 ar
    27     8     7 ar
    28    11     6 1
    29    11     4 1
    30     6    12 ar
    31     5     4 1
    32     7     3 ar
    33    12     3 ar
    34     1    29 1
    35     1    30 1
    36     2    31 1
    37     2    32 1
    38     3    33 1
    39     4    34 1
    40     4    35 1
    41     5    36 1
    42     5    37 1
    43     7    38 1
    44     9    39 1
    45    50    40 1
    46    50    41 1
    47    50    42 1
    48    14    43 1
    49    16    44 1
    50    19    45 1
    51    21    46 1
    52    25    47 1
    53    26    48 1
    54    28    49 1
@<TRIPOS>SUBSTRUCTURE
     1 3R0         1 TEMP              0 ****  ****    0 ROOT
