@<TRIPOS>MOLECULE
3R0
   50    54     1     0     0
SMALL
bcc


@<TRIPOS>ATOM
      1 C4           0.0000     0.0000     0.0000 c3         1 3R0      -0.046900
      2 C5           1.5300     0.0000     0.0000 c3         1 3R0       0.145300
      3 C11          5.3870     0.3630     0.2810 ca         1 3R0       0.501200
      4 C7           1.5870    -1.2060     2.1020 c3         1 3R0       0.145300
      5 C8           0.0590    -1.2420     2.1640 c3         1 3R0      -0.046900
      6 C9           3.3980     0.1320     1.4220 ca         1 3R0       0.729900
      7 C12          6.0670     0.3930     1.4830 ca         1 3R0      -0.451600
      8 C13          5.3340     0.2810     2.6660 ca         1 3R0       0.535200
      9 C3          -0.5050    -1.2420     0.7410 c3         1 3R0       0.172100
     10 O2          -1.9340    -1.2190     0.7930 os         1 3R0      -0.407600
     11 N6           2.0210     0.0000     1.3850 nh         1 3R0      -0.439300
     12 N10          4.0690     0.2360     0.2850 nb         1 3R0      -0.719000
     13 N14          4.0130     0.1510     2.5960 nb         1 3R0      -0.641000
     14 N15          5.9740     0.3060     3.8960 nu         1 3R0      -0.399600
     15 C16          5.2250     0.3050     5.0720 ca         1 3R0       0.458200
     16 C17          5.8690     0.4400     6.2890 ca         1 3R0      -0.236300
     17 C18          5.1030     0.4380     7.4600 ca         1 3R0       0.132400
     18 C19          3.7040     0.2960     7.3400 ca         1 3R0      -0.438500
     19 C20          3.1430     0.1680     6.0820 ca         1 3R0       0.459200
     20 N21          3.9050     0.1810     5.0050 nb         1 3R0      -0.552000
     21 N22          3.2060     0.3220     8.6310 na         1 3R0       0.284700
     22 C23          4.2730     0.4770     9.4720 cc         1 3R0       0.342400
     23 N24          5.3840     0.5430     8.7760 nd         1 3R0      -0.548100
     24 C26          4.1870     0.5550    10.9460 cc         1 3R0      -0.354200
     25 C27          5.2420     0.7110    11.8180 cd         1 3R0      -0.210300
     26 N28          4.7350     0.7330    13.0640 na         1 3R0       0.467400
     27 N30          3.3460     0.5890    12.9780 nd         1 3R0      -0.659800
     28 C31          3.0100     0.4890    11.7210 cc         1 3R0       0.404200
     29 H1          -0.3610     0.8900     0.5010 hc         1 3R0       0.028950
     30 H2          -0.3610    -0.0180    -1.0210 hc         1 3R0       0.028950
     31 H3           1.8900     0.8860    -0.5090 h1         1 3R0       0.027950
     32 H4           1.8900    -0.8860    -0.5090 h1         1 3R0       0.027950
     33 H5           5.9260     0.4470    -0.6550 h4         1 3R0      -0.021900
     34 H6           1.9470    -2.0840     1.5790 h1         1 3R0       0.027950
     35 H7           1.9880    -1.1890     3.1080 h1         1 3R0       0.027950
     36 H8          -0.2600    -2.1410     2.6780 hc         1 3R0       0.028950
     37 H9          -0.3010    -0.3690     2.6940 hc         1 3R0       0.028950
     38 H10          7.1450     0.4980     1.5070 ha         1 3R0       0.124000
     39 H11         -0.1710    -2.1320     0.2210 h1         1 3R0       0.007700
     40 H12         -2.2540    -3.0270     1.7280 h1         1 3R0      -0.013967
     41 H13         -3.6130    -2.4130     0.7760 h1         1 3R0      -0.013967
     42 H14         -2.1950    -3.0860    -0.0390 h1         1 3R0      -0.013967
     43 H15          6.9740     0.3100     3.9390 hn         1 3R0       0.290800
     44 H16          6.9060     0.7520     6.3210 ha         1 3R0       0.122000
     45 H17          2.0700     0.0640     5.9800 h4         1 3R0      -0.024900
     46 H18          2.2450     0.2440     8.8980 hn         1 3R0       0.128700
     47 H20          6.2880     0.7990    11.5500 h4         1 3R0       0.163000
     48 H21          5.2630     0.8330    13.9090 hn         1 3R0       0.150700
     49 H22          2.0030     0.3680    11.3390 h4         1 3R0      -0.000900
     50 C1          -2.5350    -2.5140     0.8160 c3         1 3R0       0.249700
@<TRIPOS>BOND
     1     1     2 1   
     2     1     9 1   
     3     1    29 1   
     4     1    30 1   
     5     2    11 1   
     6     2    31 1   
     7     2    32 1   
     8     3     7 ar  
     9     3    12 ar  
    10     3    33 1   
    11     4     5 1   
    12     4    11 1   
    13     4    34 1   
    14     4    35 1   
    15     5     9 1   
    16     5    36 1   
    17     5    37 1   
    18     6    11 1   
    19     6    12 ar  
    20     6    13 ar  
    21     7     8 ar  
    22     7    38 1   
    23     8    13 ar  
    24     8    14 1   
    25     9    10 1   
    26     9    39 1   
    27    10    50 1   
    28    14    15 1   
    29    14    43 1   
    30    15    16 ar  
    31    15    20 ar  
    32    16    17 ar  
    33    16    44 1   
    34    17    18 ar  
    35    17    23 1   
    36    18    19 ar  
    37    18    21 1   
    38    19    20 ar  
    39    19    45 1   
    40    21    22 1   
    41    21    46 1   
    42    22    23 2   
    43    22    24 1   
    44    24    25 2   
    45    24    28 1   
    46    25    26 1   
    47    25    47 1   
    48    26    27 1   
    49    26    48 1   
    50    27    28 2   
    51    28    49 1   
    52    40    50 1   
    53    41    50 1   
    54    42    50 1   
@<TRIPOS>SUBSTRUCTURE
     1 3R0         1 TEMP              0 ****  ****    0 ROOT
