@<TRIPOS>MOLECULE
molecule
   50    52     1     0     0
SMALL
bcc


@<TRIPOS>ATOM
      1 C4           0.0000     0.0000     0.0000 ca         1 3R1       0.749200
      2 C6           0.0250     0.0020     2.3050 ca         1 3R1       0.969900
      3 C11         -2.6500    -1.4330     3.3590 c3         1 3R1      -0.104100
      4 C9          -2.1410     0.0040     3.4870 c3         1 3R1       0.253500
      5 C12         -2.6610     0.6160     4.7900 c3         1 3R1       0.121400
      6 C3           1.3970     0.0000     0.0000 ca         1 3R1      -0.498600
      7 C2           2.0560     0.0000     1.2140 ca         1 3R1       0.528600
      8 N5          -0.6440     0.0010     1.1630 nb         1 3R1      -0.797000
      9 N7           1.3500     0.0010     2.3350 nb         1 3R1      -0.832000
     10 N8          -0.6760     0.0030     3.4980 nu         1 3R1      -0.888900
     11 O13         -2.2920    -0.2200     5.8890 oh         1 3R1      -0.612800
     12 N14         -0.7040     0.0060    -1.1940 nu         1 3R1      -0.864600
     13 C15         -2.0920    -0.1010    -1.1850 ca         1 3R1       0.695200
     14 C16         -2.7820    -0.2010    -2.3860 ca         1 3R1      -0.345300
     15 C17         -4.1690    -0.3060    -2.3600 ca         1 3R1       0.117600
     16 C18         -4.8110    -0.3060    -1.1220 ca         1 3R1      -0.294300
     17 C19         -4.0570    -0.2030     0.0280 ca         1 3R1       0.460200
     18 N20         -2.7410    -0.1090    -0.0310 nb         1 3R1      -0.695000
     19 N21         -4.8990    -0.4080    -3.5450 ns         1 3R1      -0.461100
     20 C22         -6.1150     0.1660    -3.6370 c          1 3R1       0.679700
     21 O23         -6.6110     0.7010    -2.6650 o          1 3R1      -0.557100
     22 C24         -6.8440     0.1470    -4.9220 ca         1 3R1      -0.135600
     23 C25         -7.7130    -0.9060    -5.2200 ca         1 3R1       0.061400
     24 C26         -8.3970    -0.9140    -6.4200 ca         1 3R1      -0.124500
     25 C27         -8.2210     0.1160    -7.3270 ca         1 3R1      -0.095000
     26 C28         -7.3630     1.1620    -7.0390 ca         1 3R1      -0.124500
     27 C29         -6.6730     1.1840    -5.8420 ca         1 3R1       0.061400
     28 Cl1         -5.6010     2.5010    -5.4810 cl         1 3R1      -0.076900
     29 Cl2         -7.9350    -2.2000    -4.0840 cl         1 3R1      -0.076900
     30 H2          -2.0140    -2.0940     3.9350 hc         1 3R1       0.045033
     31 H3          -2.6320    -1.7310     2.3180 hc         1 3R1       0.045033
     32 H4          -2.4950     0.5890     2.6470 h1         1 3R1       0.094700
     33 H5          -3.7410     0.6970     4.7450 h1         1 3R1       0.029200
     34 H6          -2.2300     1.6000     4.9240 h1         1 3R1       0.029200
     35 H7           1.9500    -0.0010    -0.9310 ha         1 3R1       0.135000
     36 H11         -0.1820     0.0050     4.3680 hn         1 3R1       0.463800
     37 H12         -2.5280     0.2020     6.6980 ho         1 3R1       0.402000
     38 H13         -0.2170     0.1240    -2.0610 hn         1 3R1       0.463800
     39 H14         -2.2490    -0.1980    -3.3290 ha         1 3R1       0.132000
     40 H15         -5.8900    -0.3850    -1.0640 ha         1 3R1       0.171000
     41 H16         -4.5500    -0.2040     0.9920 h4         1 3R1       0.026100
     42 H17         -4.4750    -0.8100    -4.3570 hn         1 3R1       0.329500
     43 H18         -9.0710    -1.7300    -6.6530 ha         1 3R1       0.154000
     44 H19         -8.7590     0.1050    -8.2670 ha         1 3R1       0.147000
     45 H20         -7.2310     1.9650    -7.7530 ha         1 3R1       0.154000
     46 C1           3.5620     0.0000     1.2620 c3         1 3R1      -0.143400
     47 H1          -3.6650    -1.4910     3.7340 hc         1 3R1       0.045033
     48 H8           3.8900     0.0120     2.2940 hc         1 3R1       0.054367
     49 H9           3.9390     0.8790     0.7520 hc         1 3R1       0.054367
     50 H10          3.9390    -0.8900     0.7730 hc         1 3R1       0.054367
@<TRIPOS>BOND
     1    24    25 ar
     2    24    23 ar
     3    29    23 1
     4    25    26 ar
     5    23    22 ar
     6    21    20 2
     7    26    27 ar
     8    22    27 ar
     9    22    20 1
    10    27    28 1
    11    20    19 1
    12    16    17 ar
    13    16    15 ar
    14    19    15 1
    15    17    18 ar
    16    15    14 ar
    17    11     5 1
    18    18    13 ar
    19    14    13 ar
    20    13    12 1
    21     5     4 1
    22     3     4 1
    23     4    10 1
    24    12     1 1
    25     8     1 ar
    26     8     2 ar
    27     1     6 ar
    28    10     2 1
    29     2     9 ar
    30     6     7 ar
    31     9     7 ar
    32     7    46 1
    33     3    47 1
    34     3    30 1
    35     3    31 1
    36     4    32 1
    37     5    33 1
    38     5    34 1
    39     6    35 1
    40    46    48 1
    41    46    49 1
    42    46    50 1
    43    10    36 1
    44    11    37 1
    45    12    38 1
    46    14    39 1
    47    16    40 1
    48    17    41 1
    49    19    42 1
    50    24    43 1
    51    25    44 1
    52    26    45 1
@<TRIPOS>SUBSTRUCTURE
     1 3R1         1 TEMP              0 ****  ****    0 ROOT
