@<TRIPOS>MOLECULE
3R2
   60    62     1     0     0
SMALL
bcc


@<TRIPOS>ATOM
      1 O4           0.0000     0.0000     0.0000 o          1 3R2      -0.699500
      2 C4           1.2180     0.0000     0.0000 c          1 3R2       0.632700
      3 N3           1.8990     0.0000     1.1640 ns         1 3R2      -0.131500
      4 C2           3.2440    -0.0040     1.1630 c          1 3R2       0.579500
      5 O2           3.8440    -0.0040     2.2220 o          1 3R2      -0.648500
      6 C5           1.9330    -0.0070    -1.2220 cc         1 3R2      -0.323400
      7 C5M          1.1970    -0.0120    -2.5370 c3         1 3R2       0.113100
      8 C6           3.2830    -0.0060    -1.1930 cd         1 3R2      -0.069400
      9 N1           3.9360    -0.0120     0.0090 n          1 3R2       0.062000
     10 C1C          5.4000    -0.0170     0.0400 c3         1 3R2       0.217500
     11 O4C          5.8810    -1.1050     0.8590 os         1 3R2      -0.346600
     12 C2C          5.9280     1.2600     0.7300 c3         1 3R2      -0.114400
     13 C3C          7.1600     0.7730     1.5270 c3         1 3R2       0.160100
     14 O3C          8.3430     1.4320     1.0700 oh         1 3R2      -0.586800
     15 C4C          7.2300    -0.7390     1.2240 c3         1 3R2       0.150100
     16 C5C          7.6730    -1.5130     2.4680 c3         1 3R2       0.311400
     17 O5C          7.8440    -2.8920     2.1360 os         1 3R2      -0.502200
     18 PA           8.3070    -4.0010     3.2070 p5         1 3R2       0.955800
     19 O1A          9.5770    -3.5780     3.8370 o          1 3R2      -0.673000
     20 O2A          7.1730    -4.1590     4.3390 o          1 3R2      -0.673000
     21 O3A          8.5200    -5.4120     2.4610 os         1 3R2      -0.491800
     22 PB           9.2450    -6.7920     2.8640 p5         1 3R2       0.949800
     23 O1B         10.8420    -6.6060     2.7760 o          1 3R2      -0.674500
     24 O2B          8.8660    -7.1610     4.2470 o          1 3R2      -0.674500
     25 O3B          8.7830    -7.9560     1.8530 os         1 3R2      -0.500200
     26 C1'          9.1710    -9.3220     2.0100 c3         1 3R2       0.287100
     27 C2'          9.9490    -9.7770     0.7730 c3         1 3R2      -0.070400
     28 C3'          9.0630    -9.6370    -0.4670 c3         1 3R2       0.166100
     29 O3'          9.7900   -10.0610    -1.6220 oh         1 3R2      -0.625800
     30 C4'          7.8150   -10.5060    -0.3030 c3         1 3R2       0.183100
     31 O4'          6.9880   -10.3750    -1.4610 oh         1 3R2      -0.595800
     32 C5'          7.0370   -10.0510     0.9330 c3         1 3R2      -0.055700
     33 C6'          5.7880   -10.9200     1.0980 c3         1 3R2       0.006900
     34 C7'          7.9230   -10.1910     2.1740 c3         1 3R2      -0.049400
     35 H1           1.4010     0.0030     2.0330 hn         1 3R2       0.201500
     36 H2           1.9130    -0.0090    -3.3510 hc         1 3R2       0.001033
     37 H3           0.5800    -0.9000    -2.6020 hc         1 3R2       0.001033
     38 H4           0.5710     0.8690    -2.6040 hc         1 3R2       0.001033
     39 H5           3.8460    -0.0120    -2.1180 h4         1 3R2       0.129000
     40 H6           5.8040    -0.0950    -0.9620 h2         1 3R2       0.023700
     41 H7           6.2220     1.9950    -0.0090 hc         1 3R2       0.029700
     42 H8           5.1800     1.6640     1.4010 hc         1 3R2       0.029700
     43 H9           7.0130     0.9390     2.5880 h1         1 3R2       0.027700
     44 H10          8.5970     2.0920     1.6940 ho         1 3R2       0.380000
     45 H11          7.9050    -0.9250     0.3980 h1         1 3R2       0.029700
     46 H12          6.9190    -1.4180     3.2400 h1         1 3R2      -0.009300
     47 H13          8.6110    -1.1100     2.8280 h1         1 3R2      -0.009300
     48 H16          9.7980    -9.4260     2.8870 h1         1 3R2       0.013700
     49 H17         10.2410   -10.8130     0.8920 hc         1 3R2       0.014200
     50 H18         10.8320    -9.1590     0.6560 hc         1 3R2       0.014200
     51 H19          8.7670    -8.6010    -0.5810 h1         1 3R2       0.048700
     52 H20          9.9890    -9.3130    -2.1610 ho         1 3R2       0.384000
     53 H21          8.1110   -11.5410    -0.1810 h1         1 3R2      -0.011300
     54 H22          7.0980   -11.1310    -2.0130 ho         1 3R2       0.369000
     55 H23          6.7470    -9.0140     0.8140 hc         1 3R2       0.073700
     56 H24          6.0760   -11.9630     1.1380 hc         1 3R2      -0.009967
     57 H25          5.2790   -10.6500     2.0160 hc         1 3R2      -0.009967
     58 H26          5.1240   -10.7610     0.2570 hc         1 3R2      -0.009967
     59 H27          7.3710    -9.8670     3.0480 hc         1 3R2       0.010200
     60 H28          8.2180   -11.2270     2.2900 hc         1 3R2       0.010200
@<TRIPOS>BOND
     1     1     2 2   
     2     2     3 1   
     3     2     6 1   
     4     3     4 1   
     5     3    35 1   
     6     4     5 2   
     7     4     9 1   
     8     6     7 1   
     9     6     8 2   
    10     7    36 1   
    11     7    37 1   
    12     7    38 1   
    13     8     9 1   
    14     8    39 1   
    15     9    10 1   
    16    10    11 1   
    17    10    12 1   
    18    10    40 1   
    19    11    15 1   
    20    12    13 1   
    21    12    41 1   
    22    12    42 1   
    23    13    14 1   
    24    13    15 1   
    25    13    43 1   
    26    14    44 1   
    27    15    16 1   
    28    15    45 1   
    29    16    17 1   
    30    16    46 1   
    31    16    47 1   
    32    17    18 1   
    33    18    19 1   
    34    18    20 1   
    35    18    21 1   
    36    21    22 1   
    37    22    23 1   
    38    22    24 1   
    39    22    25 1   
    40    25    26 1   
    41    26    27 1   
    42    26    34 1   
    43    26    48 1   
    44    27    28 1   
    45    27    49 1   
    46    27    50 1   
    47    28    29 1   
    48    28    30 1   
    49    28    51 1   
    50    29    52 1   
    51    30    31 1   
    52    30    32 1   
    53    30    53 1   
    54    31    54 1   
    55    32    33 1   
    56    32    34 1   
    57    32    55 1   
    58    33    56 1   
    59    33    57 1   
    60    33    58 1   
    61    34    59 1   
    62    34    60 1   
@<TRIPOS>SUBSTRUCTURE
     1 3R2         1 TEMP              0 ****  ****    0 ROOT
