@<TRIPOS>MOLECULE
molecule
   60    62     1     0     0
SMALL
bcc


@<TRIPOS>ATOM
      1 O4           0.0000     0.0000     0.0000 o          1 3R2      -0.653500
      2 C4           1.2180     0.0000     0.0000 c          1 3R2       0.717700
      3 N3           1.8990     0.0000     1.1640 ns         1 3R2      -0.562500
      4 C2           3.2440    -0.0040     1.1630 c          1 3R2       0.802500
      5 O2           3.8440    -0.0040     2.2220 o          1 3R2      -0.606500
      6 C5           1.9330    -0.0070    -1.2220 cc         1 3R2      -0.309400
      7 C5M          1.1970    -0.0120    -2.5370 c3         1 3R2      -0.005900
      8 C6           3.2830    -0.0060    -1.1930 cd         1 3R2       0.057600
      9 N1           3.9360    -0.0120     0.0090 n          1 3R2      -0.352000
     10 C1C          5.4000    -0.0170     0.0400 c3         1 3R2       0.307500
     11 O4C          5.8810    -1.1050     0.8590 os         1 3R2      -0.359600
     12 C2C          5.9280     1.2600     0.7300 c3         1 3R2      -0.153400
     13 C3C          7.1600     0.7730     1.5270 c3         1 3R2       0.113100
     14 O3C          8.3430     1.4320     1.0700 oh         1 3R2      -0.605800
     15 C4C          7.2300    -0.7390     1.2240 c3         1 3R2       0.129100
     16 C5C          7.6730    -1.5130     2.4680 c3         1 3R2       0.241400
     17 O5C          7.8440    -2.8920     2.1360 os         1 3R2      -0.601200
     18 PA           8.3070    -4.0010     3.2070 p5         1 3R2       1.439800
     19 O1A          9.5770    -3.5780     3.8370 o          1 3R2      -0.835500
     20 O2A          7.1730    -4.1590     4.3390 o          1 3R2      -0.835500
     21 O3A          8.5200    -5.4120     2.4610 os         1 3R2      -0.719800
     22 PB           9.2450    -6.7920     2.8640 p5         1 3R2       1.433800
     23 O1B         10.8420    -6.6060     2.7760 o          1 3R2      -0.837000
     24 O2B          8.8660    -7.1610     4.2470 o          1 3R2      -0.837000
     25 O3B          8.7830    -7.9560     1.8530 os         1 3R2      -0.605200
     26 C1'          9.1710    -9.3220     2.0100 c3         1 3R2       0.243100
     27 C2'          9.9490    -9.7770     0.7730 c3         1 3R2      -0.107400
     28 C3'          9.0630    -9.6370    -0.4670 c3         1 3R2       0.130100
     29 O3'          9.7900   -10.0610    -1.6220 oh         1 3R2      -0.640800
     30 C4'          7.8150   -10.5060    -0.3030 c3         1 3R2       0.148100
     31 O4'          6.9880   -10.3750    -1.4610 oh         1 3R2      -0.614800
     32 C5'          7.0370   -10.0510     0.9330 c3         1 3R2      -0.065700
     33 C6'          5.7880   -10.9200     1.0980 c3         1 3R2      -0.087100
     34 C7'          7.9230   -10.1910     2.1740 c3         1 3R2      -0.091400
     35 H1           1.4010     0.0030     2.0330 hn         1 3R2       0.359500
     36 H2           1.9130    -0.0090    -3.3510 hc         1 3R2       0.038700
     37 H3           0.5800    -0.9000    -2.6020 hc         1 3R2       0.038700
     38 H4           0.5710     0.8690    -2.6040 hc         1 3R2       0.038700
     39 H5           3.8460    -0.0120    -2.1180 h4         1 3R2       0.159000
     40 H6           5.8040    -0.0950    -0.9620 h2         1 3R2       0.062700
     41 H7           6.2220     1.9950    -0.0090 hc         1 3R2       0.059200
     42 H8           5.1800     1.6640     1.4010 hc         1 3R2       0.059200
     43 H9           7.0130     0.9390     2.5880 h1         1 3R2       0.064700
     44 H10          8.5970     2.0920     1.6940 ho         1 3R2       0.397000
     45 H11          7.9050    -0.9250     0.3980 h1         1 3R2       0.069700
     46 H12          6.9190    -1.4180     3.2400 h1         1 3R2       0.043200
     47 H13          8.6110    -1.1100     2.8280 h1         1 3R2       0.043200
     48 H16          9.7980    -9.4260     2.8870 h1         1 3R2       0.057700
     49 H17         10.2410   -10.8130     0.8920 hc         1 3R2       0.048200
     50 H18         10.8320    -9.1590     0.6560 hc         1 3R2       0.048200
     51 H19          8.7670    -8.6010    -0.5810 h1         1 3R2       0.080700
     52 H20          9.9890    -9.3130    -2.1610 ho         1 3R2       0.396000
     53 H21          8.1110   -11.5410    -0.1810 h1         1 3R2       0.019700
     54 H22          7.0980   -11.1310    -2.0130 ho         1 3R2       0.384000
     55 H23          6.7470    -9.0140     0.8140 hc         1 3R2       0.099700
     56 H24          6.0760   -11.9630     1.1380 hc         1 3R2       0.023033
     57 H25          5.2790   -10.6500     2.0160 hc         1 3R2       0.023033
     58 H26          5.1240   -10.7610     0.2570 hc         1 3R2       0.023033
     59 H27          7.3710    -9.8670     3.0480 hc         1 3R2       0.043700
     60 H28          8.2180   -11.2270     2.2900 hc         1 3R2       0.043700
@<TRIPOS>BOND
     1    14    13 1
     2     5     4 2
     3    33    32 1
     4    13    12 1
     5    13    15 1
     6    12    10 1
     7    10    11 1
     8    10     9 1
     9     4     9 1
    10     4     3 1
    11    15    11 1
    12    15    16 1
    13    31    30 1
    14     9     8 1
    15    32    30 1
    16    32    34 1
    17     3     2 1
    18    30    28 1
    19    17    16 1
    20    17    18 1
    21    34    26 1
    22    19    18 1
    23     8     6 2
    24     2     6 1
    25     2     1 2
    26    18    21 1
    27    18    20 1
    28    25    26 1
    29    25    22 1
    30    28    29 1
    31    28    27 1
    32     6     7 1
    33    26    27 1
    34    24    22 1
    35    21    22 1
    36    22    23 1
    37     3    35 1
    38     7    36 1
    39     7    37 1
    40     7    38 1
    41     8    39 1
    42    10    40 1
    43    12    41 1
    44    12    42 1
    45    13    43 1
    46    14    44 1
    47    15    45 1
    48    16    46 1
    49    16    47 1
    50    26    48 1
    51    27    49 1
    52    27    50 1
    53    28    51 1
    54    29    52 1
    55    30    53 1
    56    31    54 1
    57    32    55 1
    58    33    56 1
    59    33    57 1
    60    33    58 1
    61    34    59 1
    62    34    60 1
@<TRIPOS>SUBSTRUCTURE
     1 3R2         1 TEMP              0 ****  ****    0 ROOT
