@<TRIPOS>MOLECULE
3R3
   31    31     1     0     0
SMALL
bcc


@<TRIPOS>ATOM
      1 O3B          0.0000     0.0000     0.0000 o          1 3R3      -0.776500
      2 PB           1.4800     0.0000     0.0000 p5         1 3R3       0.572800
      3 O1B          2.0170     0.0000     1.5180 o          1 3R3      -0.776500
      4 O2B          2.0170    -1.3140    -0.7580 o          1 3R3      -0.776500
      5 N3A          2.0400     1.3750    -0.7930 n7         1 3R3      -0.446400
      6 PA           1.5000     2.7740    -0.0300 p5         1 3R3       0.658700
      7 O1A          1.9940     2.7970     1.3650 o          1 3R3      -0.665500
      8 O2A         -0.1100     2.7980    -0.0300 o          1 3R3      -0.665500
      9 O1           2.0560     4.0640    -0.8170 os         1 3R3      -0.472200
     10 C1           3.4350     4.4420    -0.8160 c3         1 3R3       0.434900
     11 O4           4.1050     3.8420    -1.9310 os         1 3R3      -0.352600
     12 C4           4.6130     4.8620    -2.8050 c3         1 3R3       0.157100
     13 C3           4.7840     6.1140    -1.9090 c3         1 3R3       0.101100
     14 O3           4.7060     7.3140    -2.6800 oh         1 3R3      -0.576800
     15 C2           3.5570     5.9730    -0.9650 c3         1 3R3       0.104100
     16 O2           2.3840     6.5200    -1.5710 oh         1 3R3      -0.521800
     17 C5           5.9610     4.4380    -3.3900 c3         1 3R3       0.284400
     18 O5           5.7660     3.3560    -4.3030 os         1 3R3      -0.442200
     19 P            6.9740     2.6570    -5.1050 p5         1 3R3       0.698900
     20 O1P          7.9580     1.9250    -4.0630 o          1 3R3      -0.782833
     21 O2P          6.3770     1.5720    -6.1340 o          1 3R3      -0.782833
     22 O3P          7.7280     3.6870    -5.8560 o          1 3R3      -0.782833
     23 H3           2.1680     1.3630    -1.7850 hn         1 3R3       0.264800
     24 H5           3.9060     4.1250     0.1070 h2         1 3R3       0.012700
     25 H6           3.9010     5.0640    -3.5960 h1         1 3R3       0.021700
     26 H7           5.7100     6.0630    -1.3490 h1         1 3R3      -0.005300
     27 H8           5.3530     7.9280    -2.3730 ho         1 3R3       0.330000
     28 H9           3.7570     6.4370    -0.0060 h1         1 3R3      -0.044300
     29 H10          2.0510     7.2200    -1.0350 ho         1 3R3       0.325000
     30 H11          6.6190     4.1210    -2.5900 h1         1 3R3      -0.047300
     31 H12          6.4070     5.2750    -3.9130 h1         1 3R3      -0.047300
@<TRIPOS>BOND
     1     1     2 1   
     2     2     3 1   
     3     2     4 1   
     4     2     5 1   
     5     5     6 1   
     6     5    23 1   
     7     6     7 1   
     8     6     8 1   
     9     6     9 1   
    10     9    10 1   
    11    10    11 1   
    12    10    15 1   
    13    10    24 1   
    14    11    12 1   
    15    12    13 1   
    16    12    17 1   
    17    12    25 1   
    18    13    14 1   
    19    13    15 1   
    20    13    26 1   
    21    14    27 1   
    22    15    16 1   
    23    15    28 1   
    24    16    29 1   
    25    17    18 1   
    26    17    30 1   
    27    17    31 1   
    28    18    19 1   
    29    19    20 1   
    30    19    21 1   
    31    19    22 1   
@<TRIPOS>SUBSTRUCTURE
     1 3R3         1 TEMP              0 ****  ****    0 ROOT
