@<TRIPOS>MOLECULE
molecule
   17    18     1     0     0
SMALL
bcc


@<TRIPOS>ATOM
      1 C13          0.0000     0.0000     0.0000 cc         1 3R4      -0.001800
      2 O01          1.6540     0.0020    -2.3040 o          1 3R4      -0.808300
      3 C02          2.1730     0.0010    -1.2050 c          1 3R4       0.891800
      4 O03          3.5180     0.0010    -1.0960 o          1 3R4      -0.808300
      5 C04          1.3400     0.0000     0.0000 cd         1 3R4      -0.001600
      6 S05          1.9590     0.0000     1.6420 ss         1 3R4      -0.030500
      7 C06          0.3310    -0.0000     2.3100 ca         1 3R4      -0.042100
      8 C07         -0.1060    -0.0000     3.6380 ca         1 3R4      -0.132000
      9 C08         -1.4520    -0.0010     3.9230 ca         1 3R4       0.105900
     10 F09         -1.8700     0.0010     5.2090 f          1 3R4      -0.160900
     11 C10         -2.3850    -0.0010     2.8900 ca         1 3R4      -0.187000
     12 C11         -1.9830    -0.0010     1.5930 ca         1 3R4      -0.070000
     13 C12         -0.6040    -0.0010     1.2680 ca         1 3R4      -0.066800
     14 Cl14        -0.9260     0.0060    -1.4690 cl         1 3R4      -0.088400
     15 H2           0.6430    -0.0010     4.4210 ha         1 3R4       0.136000
     16 H3          -3.4430    -0.0010     3.1240 ha         1 3R4       0.128000
     17 H4          -2.7840    -0.0010     0.8630 ha         1 3R4       0.135000
@<TRIPOS>BOND
     1     6     5 1   
     2     6     7 1   
     3     2     3 1   
     4     4     3 1   
     5     3     5 1   
     6     5     1 2   
     7     8     7 ar  
     8     8     9 ar  
     9     7    13 ar  
    10     1    13 1   
    11     1    14 1   
    12    10     9 1   
    13     9    11 ar  
    14    13    12 ar  
    15    11    12 ar  
    16     8    15 1   
    17    11    16 1   
    18    12    17 1   
@<TRIPOS>SUBSTRUCTURE
     1 3R4         1 TEMP              0 ****  ****    0 ROOT
