@<TRIPOS>MOLECULE
3R4
   17    18     1     0     0
SMALL
bcc


@<TRIPOS>ATOM
      1 C13        -0.0530    0.2010   -0.0520 cc        1 3R4     -0.030800
      2 O01         2.4310   -1.1580   -1.7950 o         1 3R4     -0.795300
      3 C02         2.2680   -0.0660   -1.1940 c         1 3R4      0.932800
      4 O03         2.8500    1.0170   -1.4550 o         1 3R4     -0.795300
      5 C04         1.2920   -0.0620   -0.0190 cd        1 3R4     -0.059600
      6 S05         1.8210   -0.4080    1.5510 ss        1 3R4      0.048500
      7 C06         0.2970   -0.2230    2.2440 ca        1 3R4     -0.092100
      8 C07        -0.0840   -0.3580    3.5810 ca        1 3R4     -0.127000
      9 C08        -1.4230   -0.1550    3.9220 ca        1 3R4      0.089900
     10 F09        -1.8190   -0.2800    5.2160 f         1 3R4     -0.164900
     11 C10        -2.3870    0.1830    2.9380 ca        1 3R4     -0.180000
     12 C11        -2.0070    0.3160    1.6160 ca        1 3R4     -0.076000
     13 C12        -0.6680    0.1160    1.2520 ca        1 3R4     -0.066800
     14 CL14       -0.9480    0.5870   -1.4270 cl        1 3R4     -0.087400
     15 H2          0.6510   -0.6200    4.3540 ha        1 3R4      0.138000
     16 H3         -3.4300    0.3360    3.2460 ha        1 3R4      0.130000
     17 H4         -2.7460    0.5780    0.8440 ha        1 3R4      0.138000
@<TRIPOS>BOND
     1    1    5 2   
     2    1   13 1   
     3    1   14 1   
     4    2    3 1   
     5    3    4 1   
     6    3    5 1   
     7    5    6 1   
     8    6    7 1   
     9    7    8 ar  
    10    7   13 ar  
    11    8    9 ar  
    12    8   15 1   
    13    9   10 1   
    14    9   11 ar  
    15   11   12 ar  
    16   11   16 1   
    17   12   13 ar  
    18   12   17 1   
@<TRIPOS>SUBSTRUCTURE
     1 3R4         1 TEMP              0 ****  ****    0 ROOT
