@<TRIPOS>MOLECULE
molecule
   31    32     1     0     0
SMALL
bcc


@<TRIPOS>ATOM
      1 C1           0.0000     0.0000     0.0000 c          1 3R5       0.590500
      2 C2           1.4680     0.0000     0.0000 ca         1 3R5      -0.193600
      3 C3           2.1760     0.0000     1.2130 ca         1 3R5       0.143100
      4 C4           3.5610    -0.0000     1.2020 ca         1 3R5      -0.201000
      5 C5           4.2450     0.0000     0.0030 ca         1 3R5      -0.152000
      6 C6           3.5540     0.0000    -1.2020 ca         1 3R5       0.091100
      7 C7           2.1720    -0.0050    -1.2100 ca         1 3R5      -0.064000
      8 O8           4.2380     0.0010    -2.3780 os         1 3R5      -0.325900
      9 C9           5.6650     0.0010    -2.2970 c3         1 3R5       0.128700
     10 O10          1.5040    -0.0000     2.3920 os         1 3R5      -0.326900
     11 C11          2.2890    -0.0000     3.5860 c3         1 3R5       0.191700
     12 C12          1.3780    -0.0000     4.7870 ca         1 3R5      -0.226600
     13 C13          0.9510     1.1920     5.3410 ca         1 3R5       0.445200
     14 N14          0.1530     1.2000     6.3910 nb         1 3R5      -0.690000
     15 C15         -0.2660     0.0830     6.9520 ca         1 3R5       0.431200
     16 C16          0.1190    -1.1470     6.4530 ca         1 3R5      -0.258300
     17 C17          0.9530    -1.1950     5.3460 ca         1 3R5      -0.068000
     18 O18         -0.6070     0.0010    -1.0490 o          1 3R5      -0.532100
     19 H1          -0.5410    -0.0000     0.9380 h4         1 3R5       0.018200
     20 H4           4.1080    -0.0000     2.1370 ha         1 3R5       0.138000
     21 H5           5.3290     0.0020     0.0010 ha         1 3R5       0.139000
     22 H7           1.6340    -0.0050    -2.1510 ha         1 3R5       0.172000
     23 H9           6.0830     0.0020    -3.2960 h1         1 3R5       0.041367
     24 H9A          5.9970    -0.8830    -1.7670 h1         1 3R5       0.041367
     25 H9B          5.9970     0.8860    -1.7660 h1         1 3R5       0.041367
     26 H11          2.9140    -0.8850     3.6070 h1         1 3R5       0.044200
     27 H11A         2.9140     0.8840     3.6070 h1         1 3R5       0.044200
     28 H13          1.2750     2.1300     4.9070 h4         1 3R5       0.027100
     29 H15         -0.9190     0.1300     7.8150 h4         1 3R5       0.026100
     30 H16         -0.2310    -2.0610     6.9170 ha         1 3R5       0.142000
     31 H17          1.2720    -2.1450     4.9330 ha         1 3R5       0.142000
@<TRIPOS>BOND
     1     2     1 1
     2     1    18 2
     3     1    19 1
     4     7     2 ar
     5     3     2 ar
     6     4     3 ar
     7     3    10 1
     8     5     4 ar
     9     4    20 1
    10     5     6 ar
    11     5    21 1
    12     8     6 1
    13     6     7 ar
    14     7    22 1
    15     8     9 1
    16     9    23 1
    17     9    24 1
    18     9    25 1
    19    11    10 1
    20    11    12 1
    21    11    26 1
    22    11    27 1
    23    12    17 ar
    24    12    13 ar
    25    13    14 ar
    26    13    28 1
    27    14    15 ar
    28    16    15 ar
    29    15    29 1
    30    17    16 ar
    31    16    30 1
    32    17    31 1
@<TRIPOS>SUBSTRUCTURE
     1 3R5         1 TEMP              0 ****  ****    0 ROOT
