@<TRIPOS>MOLECULE
3R5
   31    32     1     0     0
SMALL
bcc


@<TRIPOS>ATOM
      1 C1          0.2170   -0.9150    0.2400 c         1 3R5      0.583500
      2 C2          1.6310   -0.5140    0.1490 ca        1 3R5     -0.190600
      3 C3          2.3410   -0.1170    1.3090 ca        1 3R5      0.136100
      4 C4          3.6830    0.2640    1.2240 ca        1 3R5     -0.187000
      5 C5          4.3330    0.2560   -0.0110 ca        1 3R5     -0.140000
      6 C6          3.6370   -0.1340   -1.1580 ca        1 3R5      0.079100
      7 C7          2.2860   -0.5190   -1.0800 ca        1 3R5     -0.065000
      8 O8          4.1790   -0.1810   -2.4300 os        1 3R5     -0.321900
      9 C9          5.5420    0.2080   -2.5440 c3        1 3R5      0.112700
     10 O10         1.6120   -0.1430    2.4810 os        1 3R5     -0.333900
     11 C11         2.3150    0.2600    3.6660 c3        1 3R5      0.182700
     12 C12         1.3680    0.1660    4.8110 ca        1 3R5     -0.213600
     13 C13         1.6440    0.8920    5.9900 ca        1 3R5      0.400200
     14 N14         0.8660    0.8510    7.0860 nb        1 3R5     -0.661000
     15 C15        -0.2350    0.0760    7.0370 ca        1 3R5      0.397200
     16 C16        -0.6000   -0.6800    5.9080 ca        1 3R5     -0.244300
     17 C17         0.2190   -0.6320    4.7790 ca        1 3R5     -0.066000
     18 O18        -0.4480   -1.2750   -0.7340 o         1 3R5     -0.531100
     19 H1         -0.2220   -0.8730    1.2630 h4        1 3R5      0.017200
     20 H4          4.2450    0.5720    2.1160 ha        1 3R5      0.142000
     21 H5          5.3890    0.5580   -0.0630 ha        1 3R5      0.143000
     22 H7          1.7450   -0.8250   -1.9900 ha        1 3R5      0.175000
     23 H9          6.1980   -0.4690   -1.9450 h1        1 3R5      0.045367
     24 H9A         5.7530    0.0960   -3.6380 h1        1 3R5      0.045367
     25 H9B         5.6780    1.2700   -2.2240 h1        1 3R5      0.045367
     26 H11         2.6810    1.3150    3.5380 h1        1 3R5      0.053700
     27 H11A        3.1890   -0.4280    3.8280 h1        1 3R5      0.053700
     28 H13         2.5370    1.5400    6.0580 h4        1 3R5      0.021100
     29 H15        -0.8550    0.0650    7.9520 h4        1 3R5      0.025100
     30 H16        -1.5100   -1.2940    5.9200 ha        1 3R5      0.148000
     31 H17        -0.0320   -1.2040    3.8730 ha        1 3R5      0.153000
@<TRIPOS>BOND
     1    1    2 1   
     2    1   18 2   
     3    1   19 1   
     4    2    3 ar  
     5    2    7 ar  
     6    3    4 ar  
     7    3   10 1   
     8    4    5 ar  
     9    4   20 1   
    10    5    6 ar  
    11    5   21 1   
    12    6    7 ar  
    13    6    8 1   
    14    7   22 1   
    15    8    9 1   
    16    9   23 1   
    17    9   24 1   
    18    9   25 1   
    19   10   11 1   
    20   11   12 1   
    21   11   26 1   
    22   11   27 1   
    23   12   13 ar  
    24   12   17 ar  
    25   13   14 ar  
    26   13   28 1   
    27   14   15 ar  
    28   15   16 ar  
    29   15   29 1   
    30   16   17 ar  
    31   16   30 1   
    32   17   31 1   
@<TRIPOS>SUBSTRUCTURE
     1 3R5         1 TEMP              0 ****  ****    0 ROOT
