@<TRIPOS>MOLECULE
3R6
   19    19     1     0     0
SMALL
bcc


@<TRIPOS>ATOM
      1 C01         1.2860   -0.6160   -0.4480 c3        1 3R6     -0.047000
      2 S02         0.9400    0.8570    0.4420 ss        1 3R6     -0.268000
      3 C03         1.5400    0.5570    2.0110 ca        1 3R6     -0.090100
      4 C04         0.7160    0.8810    3.0940 ca        1 3R6     -0.075000
      5 C05         1.1730    0.7360    4.3960 ca        1 3R6     -0.217000
      6 C06         2.4700    0.2320    4.6310 ca        1 3R6      0.195100
      7 O07         2.8230    0.1160    5.9440 oh        1 3R6     -0.549100
      8 C08         3.3060   -0.1160    3.5510 ca        1 3R6     -0.221600
      9 C09         2.8260    0.0670    2.2550 ca        1 3R6     -0.039000
     10 C10         4.7010   -0.6810    3.7360 c         1 3R6      0.918200
     11 O11         5.3550   -1.0120    2.7100 o         1 3R6     -0.831800
     12 O12         5.1520   -0.8020    4.9180 o         1 3R6     -0.831800
     13 H1          2.3540   -0.9190   -0.3550 h1        1 3R6      0.056367
     14 H2          1.0590   -0.3920   -1.5140 h1        1 3R6      0.056367
     15 H3          0.6520   -1.4640   -0.1080 h1        1 3R6      0.056367
     16 H4         -0.3010    1.2580    2.9100 ha        1 3R6      0.117000
     17 H5          0.5380    1.0010    5.2510 ha        1 3R6      0.126000
     18 H6          3.7390   -0.2370    6.0000 ho        1 3R6      0.485000
     19 H7          3.5020   -0.1930    1.4210 ha        1 3R6      0.157000
@<TRIPOS>BOND
     1    1    2 1   
     2    1   13 1   
     3    1   14 1   
     4    1   15 1   
     5    2    3 1   
     6    3    4 ar  
     7    3    9 ar  
     8    4    5 ar  
     9    4   16 1   
    10    5    6 ar  
    11    5   17 1   
    12    6    7 1   
    13    6    8 ar  
    14    7   18 1   
    15    8    9 ar  
    16    8   10 1   
    17    9   19 1   
    18   10   11 1   
    19   10   12 1   
@<TRIPOS>SUBSTRUCTURE
     1 3R6         1 TEMP              0 ****  ****    0 ROOT
