@<TRIPOS>MOLECULE
molecule
   19    19     1     0     0
SMALL
bcc


@<TRIPOS>ATOM
      1 C01          0.0000     0.0000     0.0000 c3         1 3R6      -0.017000
      2 S02          1.8140     0.0000     0.0000 ss         1 3R6      -0.294000
      3 C03          2.2110     0.0000     1.7170 ca         1 3R6      -0.006100
      4 C04          1.1920     0.0000     2.6650 ca         1 3R6      -0.146000
      5 C05          1.4940     0.0010     4.0120 ca         1 3R6      -0.212000
      6 C06          2.8150     0.0010     4.4300 ca         1 3R6       0.134100
      7 O07          3.1090     0.0020     5.7550 oh         1 3R6      -0.467100
      8 C08          3.8480     0.0010     3.4820 ca         1 3R6      -0.106600
      9 C09          3.5360    -0.0050     2.1190 ca         1 3R6      -0.053000
     10 C10          5.2550     0.0020     3.9190 c          1 3R6       0.881200
     11 O11          6.2450     0.0020     3.0040 o          1 3R6      -0.825800
     12 O12          5.5230     0.0040     5.1040 o          1 3R6      -0.825800
     13 H1          -0.3610     0.8850     0.5100 h1         1 3R6       0.052700
     14 H2          -0.3610    -0.0000    -1.0210 h1         1 3R6       0.052700
     15 H3          -0.3610    -0.8840     0.5110 h1         1 3R6       0.052700
     16 H4           0.1570     0.0000     2.3440 ha         1 3R6       0.107000
     17 H5           0.6960     0.0020     4.7440 ha         1 3R6       0.111000
     18 H6           2.6400    -0.6950     6.1820 ho         1 3R6       0.392000
     19 H7           4.3280    -0.0050     1.3810 ha         1 3R6       0.170000
@<TRIPOS>BOND
     1    12    10 1   
     2    11    10 1   
     3    10     8 1   
     4     9     8 ar  
     5     9     3 ar  
     6     8     6 ar  
     7     2     3 1   
     8     2     1 1   
     9     3     4 ar  
    10     6     7 1   
    11     6     5 ar  
    12     4     5 ar  
    13     1    13 1   
    14     1    14 1   
    15     1    15 1   
    16     4    16 1   
    17     5    17 1   
    18     7    18 1   
    19     9    19 1   
@<TRIPOS>SUBSTRUCTURE
     1 3R6         1 TEMP              0 ****  ****    0 ROOT
