@<TRIPOS>MOLECULE
molecule
   33    34     1     0     0
SMALL
bcc


@<TRIPOS>ATOM
      1 C10          0.0000     0.0000     0.0000 ca         1 3R7      -0.201000
      2 C11          1.3860     0.0000     0.0000 ca         1 3R7       0.158600
      3 O01          4.1680    -0.0010     0.1840 o          1 3R7      -0.834800
      4 C02          3.5520    -0.0010     1.2330 c          1 3R7       0.887200
      5 O03          4.2190    -0.0000     2.4050 o          1 3R7      -0.834800
      6 C04          2.0820     0.0000     1.2220 ca         1 3R7      -0.114600
      7 C05          1.3720    -0.0000     2.4270 ca         1 3R7      -0.080000
      8 C06          0.0070     0.0000     2.4210 ca         1 3R7      -0.162000
      9 C07         -0.6930     0.0010     1.2090 ca         1 3R7      -0.072800
     10 C08         -2.1700     0.0070     1.2140 ce         1 3R7      -0.086200
     11 C09         -2.8300     0.0070     2.3640 c2         1 3R7      -0.256000
     12 N12          2.0840    -0.0010    -1.2000 nu         1 3R7      -0.734500
     13 S13          1.4940     0.8360    -2.5020 sy         1 3R7       1.425200
     14 O14          2.4880     0.7570    -3.5140 o          1 3R7      -0.659800
     15 O15          0.1560     0.3940    -2.6900 o          1 3R7      -0.659800
     16 C16          1.3960     2.5300    -2.0310 ca         1 3R7      -0.282500
     17 C17          0.2430     3.0210    -1.4470 ca         1 3R7      -0.014500
     18 C18          0.1660     4.3500    -1.0770 ca         1 3R7      -0.165500
     19 C19          1.2430     5.1910    -1.2930 ca         1 3R7      -0.085000
     20 C20          2.3960     4.7010    -1.8770 ca         1 3R7      -0.165500
     21 C21          2.4740     3.3700    -2.2400 ca         1 3R7      -0.014500
     22 H1          -0.5430     0.0000    -0.9370 ha         1 3R7       0.165000
     23 H3           1.9070    -0.0010     3.3690 ha         1 3R7       0.158000
     24 H4          -0.5360     0.0000     3.3580 ha         1 3R7       0.114000
     25 H5          -2.7140     0.0120     0.2770 ha         1 3R7       0.119000
     26 H6          -3.9140     0.0110     2.3670 ha         1 3R7       0.106500
     27 H7          -2.2870     0.0010     3.3010 ha         1 3R7       0.106500
     28 H8           2.9120    -0.5550    -1.2960 hn         1 3R7       0.505800
     29 H9          -0.6210     2.3770    -1.3300 ha         1 3R7       0.153000
     30 H10         -0.7390     4.7350    -0.6220 ha         1 3R7       0.126000
     31 H11          1.1730     6.2390    -1.0280 ha         1 3R7       0.117000
     32 H12          3.2450     5.3550    -2.0320 ha         1 3R7       0.126000
     33 H13          3.4060     3.2180    -2.7720 ha         1 3R7       0.153000
@<TRIPOS>BOND
     1     3     4 1
     2     5     4 1
     3     4     6 1
     4    18    17 ar
     5    18    19 ar
     6    17    16 ar
     7     6     7 ar
     8     6     2 ar
     9     7     8 ar
    10    19    20 ar
    11    12     2 1
    12    12    13 1
    13     2     1 ar
    14    16    13 1
    15    16    21 ar
    16    15    13 2
    17     8     9 ar
    18    13    14 2
    19    20    21 ar
    20     1     9 ar
    21     9    10 1
    22    10    11 2
    23     1    22 1
    24     7    23 1
    25     8    24 1
    26    10    25 1
    27    11    26 1
    28    11    27 1
    29    12    28 1
    30    17    29 1
    31    18    30 1
    32    19    31 1
    33    20    32 1
    34    21    33 1
@<TRIPOS>SUBSTRUCTURE
     1 3R7         1 TEMP              0 ****  ****    0 ROOT
