@<TRIPOS>MOLECULE
3R7
   33    34     1     0     0
SMALL
bcc


@<TRIPOS>ATOM
      1 C10          0.0000     0.0000     0.0000 ca         1 3R7      -0.207000
      2 C11          1.3860     0.0000     0.0000 ca         1 3R7       0.084600
      3 O01          4.1680    -0.0010     0.1840 o          1 3R7      -0.881300
      4 C02          3.5520    -0.0010     1.2330 c          1 3R7       0.983200
      5 O03          4.2190    -0.0000     2.4050 o          1 3R7      -0.881300
      6 C04          2.0820     0.0000     1.2220 ca         1 3R7      -0.132600
      7 C05          1.3720    -0.0000     2.4270 ca         1 3R7      -0.046000
      8 C06          0.0070     0.0000     2.4210 ca         1 3R7      -0.155000
      9 C07         -0.6930     0.0010     1.2090 ca         1 3R7      -0.071800
     10 C08         -2.1700     0.0070     1.2140 ce         1 3R7      -0.048200
     11 C09         -2.8300     0.0070     2.3640 c2         1 3R7      -0.222000
     12 N12          2.0840    -0.0010    -1.2000 nu         1 3R7      -0.359500
     13 S13          1.4940     0.8360    -2.5020 sy         1 3R7       1.023200
     14 O14          2.4880     0.7570    -3.5140 o          1 3R7      -0.613300
     15 O15          0.1560     0.3940    -2.6900 o          1 3R7      -0.613300
     16 C16          1.3960     2.5300    -2.0310 ca         1 3R7      -0.125500
     17 C17          0.2430     3.0210    -1.4470 ca         1 3R7       0.018000
     18 C18          0.1660     4.3500    -1.0770 ca         1 3R7      -0.151500
     19 C19          1.2430     5.1910    -1.2930 ca         1 3R7      -0.059000
     20 C20          2.3960     4.7010    -1.8770 ca         1 3R7      -0.151500
     21 C21          2.4740     3.3700    -2.2400 ca         1 3R7       0.018000
     22 H1          -0.5430     0.0000    -0.9370 ha         1 3R7       0.164000
     23 H3           1.9070    -0.0010     3.3690 ha         1 3R7       0.128000
     24 H4          -0.5360     0.0000     3.3580 ha         1 3R7       0.097000
     25 H5          -2.7140     0.0120     0.2770 ha         1 3R7       0.093000
     26 H6          -2.2870     0.0010     3.3010 ha         1 3R7       0.084500
     27 H7          -3.9140     0.0110     2.3670 ha         1 3R7       0.084500
     28 H8           2.9120    -0.5550    -1.2960 hn         1 3R7       0.401800
     29 H9          -0.6210     2.3770    -1.3300 ha         1 3R7       0.124500
     30 H10         -0.7390     4.7350    -0.6220 ha         1 3R7       0.101000
     31 H11          1.1730     6.2390    -1.0280 ha         1 3R7       0.089000
     32 H12          3.2450     5.3550    -2.0320 ha         1 3R7       0.101000
     33 H13          3.4060     3.2180    -2.7720 ha         1 3R7       0.124500
@<TRIPOS>BOND
     1     1     2 ar  
     2     1     9 ar  
     3     1    22 1   
     4     2     6 ar  
     5     2    12 1   
     6     3     4 1   
     7     4     5 1   
     8     4     6 1   
     9     6     7 ar  
    10     7     8 ar  
    11     7    23 1   
    12     8     9 ar  
    13     8    24 1   
    14     9    10 1   
    15    10    11 2   
    16    10    25 1   
    17    11    26 1   
    18    11    27 1   
    19    12    13 1   
    20    12    28 1   
    21    13    14 2   
    22    13    15 2   
    23    13    16 1   
    24    16    17 ar  
    25    16    21 ar  
    26    17    18 ar  
    27    17    29 1   
    28    18    19 ar  
    29    18    30 1   
    30    19    20 ar  
    31    19    31 1   
    32    20    21 ar  
    33    20    32 1   
    34    21    33 1   
@<TRIPOS>SUBSTRUCTURE
     1 3R7         1 TEMP              0 ****  ****    0 ROOT
