@<TRIPOS>MOLECULE
molecule
   23    24     1     0     0
SMALL
bcc


@<TRIPOS>ATOM
      1 OXT          0.0000     0.0000     0.0000 o          1 3R9      -0.817300
      2 N            3.4050    -0.6460    -1.1130 n3         1 3R9      -0.690600
      3 C            1.3410     0.0000     0.0000 c          1 3R9       0.884600
      4 O            1.9470     0.0000     1.0460 o          1 3R9      -0.817300
      5 CA           2.0950    -0.0000    -1.3050 c3         1 3R9       0.051500
      6 CB           2.2850     1.4620    -1.7900 c3         1 3R9       0.091700
      7 SAH          3.7070     1.2340    -2.9400 ss         1 3R9      -0.509200
      8 CAM          4.4770    -0.1030    -1.9530 c3         1 3R9       0.313600
      9 CAF          5.1030    -1.1480    -2.8960 c3         1 3R9       0.030700
     10 SAG          4.8200    -2.6940    -1.9300 ss         1 3R9      -0.413200
     11 CAJ          3.2220    -2.1150    -1.2280 c3         1 3R9       0.331600
     12 CAD          2.9820    -2.7370     0.1490 c3         1 3R9       0.058700
     13 SAC          4.3340    -2.2740     1.2660 sh         1 3R9      -0.340900
     14 H3           1.5330    -0.5520    -2.0490 h1         1 3R9       0.039700
     15 H4           2.5490     2.1150    -0.9670 h1         1 3R9       0.082700
     16 H5           1.4080     1.8150    -2.3180 h1         1 3R9       0.082700
     17 H6           5.2500     0.3170    -1.3210 h2         1 3R9       0.097700
     18 H7           4.5770    -1.1810    -3.8430 h1         1 3R9       0.074200
     19 H8           6.1610    -0.9640    -3.0320 h1         1 3R9       0.074200
     20 H9           2.4070    -2.3430    -1.9040 h2         1 3R9       0.066700
     21 H10          2.9440    -3.8160     0.0560 h1         1 3R9       0.076700
     22 H11          2.0430    -2.3760     0.5500 h1         1 3R9       0.076700
     23 H12          4.4750    -3.2060     2.2000 hs         1 3R9       0.154800
@<TRIPOS>BOND
     1     8     9 1   
     2     8     7 1   
     3     8     2 1   
     4     9    10 1   
     5    13    12 1   
     6     7     6 1   
     7    12    11 1   
     8     2    11 1   
     9     2     5 1   
    10    11    10 1   
    11     4     3 1   
    12     6     5 1   
    13     5     3 1   
    14     3     1 1   
    15     5    14 1   
    16     6    15 1   
    17     6    16 1   
    18     8    17 1   
    19     9    18 1   
    20     9    19 1   
    21    11    20 1   
    22    12    21 1   
    23    12    22 1   
    24    13    23 1   
@<TRIPOS>SUBSTRUCTURE
     1 3R9         1 TEMP              0 ****  ****    0 ROOT
