@<TRIPOS>MOLECULE
molecule
   36    39     1     0     0
SMALL
bcc


@<TRIPOS>ATOM
      1 CAA          0.0000     0.0000     0.0000 ca         1 3RA      -0.132000
      2 CAB          1.3810     0.0000     0.0000 ca         1 3RA      -0.111500
      3 CAC          2.0750     0.0000     1.1960 ca         1 3RA      -0.134000
      4 CAD          1.3890     0.0010     2.3980 ca         1 3RA      -0.111500
      5 CAE          0.0080     0.0020     2.4080 ca         1 3RA      -0.132000
      6 CAF         -0.6930     0.0080     1.2060 ca         1 3RA       0.125600
      7 NAG         -2.0860     0.0090     1.2110 nu         1 3RA      -0.648600
      8 CAH         -2.7680     0.6070     0.2010 cc         1 3RA       0.885200
      9 NAI         -4.1290     0.5830     0.0630 nc         1 3RA      -0.709000
     10 CAJ         -4.4640     1.2470    -1.0030 cd         1 3RA       0.400300
     11 CAK         -3.1770     1.7410    -1.6000 c          1 3RA       0.563200
     12 NAL         -2.2050     1.2970    -0.7780 nd         1 3RA      -0.787100
     13 OAM         -3.0420     2.4060    -2.6060 o          1 3RA      -0.471100
     14 CAN         -5.8560     1.4740    -1.5320 c3         1 3RA      -0.043400
     15 CAO         -6.8540     0.8020    -0.6250 ca         1 3RA      -0.086300
     16 CAP         -7.3950     1.4970     0.4420 ca         1 3RA      -0.098000
     17 CAQ         -8.3110     0.8800     1.2770 ca         1 3RA       0.051100
     18 CAR         -8.6860    -0.4410     1.0400 ca         1 3RA       0.053100
     19 CAS         -8.1410    -1.1300    -0.0300 ca         1 3RA      -0.111000
     20 CAT         -7.2310    -0.5070    -0.8630 ca         1 3RA      -0.110000
     21 OAU         -8.9800     1.3330     2.3770 os         1 3RA      -0.326900
     22 CAV        -10.0730     0.4140     2.5690 c3         1 3RA       0.332200
     23 OAW         -9.5910    -0.8140     1.9920 os         1 3RA      -0.326900
     24 HAA         -0.5430     0.0020    -0.9380 ha         1 3RA       0.152000
     25 HAB          1.9210    -0.0030    -0.9390 ha         1 3RA       0.136500
     26 HAC          3.1580    -0.0010     1.1920 ha         1 3RA       0.133000
     27 HAD          1.9370    -0.0010     3.3330 ha         1 3RA       0.136500
     28 HAE         -0.5280     0.0060     3.3490 ha         1 3RA       0.152000
     29 HNAG        -2.5850    -0.4490     1.9480 hn         1 3RA       0.472800
     30 HAN         -6.0600     2.5370    -1.5690 hc         1 3RA       0.087200
     31 HANA        -5.9360     1.0570    -2.5290 hc         1 3RA       0.087200
     32 HAP         -7.1160     2.5290     0.6120 ha         1 3RA       0.145000
     33 HAS         -8.4350    -2.1560    -0.2190 ha         1 3RA       0.145000
     34 HAT         -6.8180    -1.0430    -1.7090 ha         1 3RA       0.140000
     35 HAV        -10.9430     0.7600     2.0240 h2         1 3RA       0.071700
     36 HAVA       -10.2560     0.2760     3.6270 h2         1 3RA       0.071700
@<TRIPOS>BOND
     1     6     1 ar  
     2     1     2 ar  
     3     1    24 1   
     4     3     2 ar  
     5     2    25 1   
     6     4     3 ar  
     7     3    26 1   
     8     5     4 ar  
     9     4    27 1   
    10     5     6 ar  
    11     5    28 1   
    12     6     7 1   
    13     8     7 1   
    14     7    29 1   
    15     9     8 1   
    16     8    12 2   
    17    10     9 2   
    18    14    10 1   
    19    10    11 1   
    20    13    11 2   
    21    11    12 1   
    22    15    14 1   
    23    14    30 1   
    24    14    31 1   
    25    20    15 ar  
    26    15    16 ar  
    27    17    16 ar  
    28    16    32 1   
    29    18    17 ar  
    30    21    17 1   
    31    23    18 1   
    32    19    18 ar  
    33    19    20 ar  
    34    19    33 1   
    35    20    34 1   
    36    22    21 1   
    37    23    22 1   
    38    22    35 1   
    39    22    36 1   
@<TRIPOS>SUBSTRUCTURE
     1 3RA         1 TEMP              0 ****  ****    0 ROOT
