@<TRIPOS>MOLECULE
3RA
   36    39     1     0     0
SMALL
bcc


@<TRIPOS>ATOM
      1 CAA          0.0000     0.0000     0.0000 ca         1 3RA      -0.100000
      2 CAB          1.3810     0.0000     0.0000 ca         1 3RA      -0.084000
      3 CAC          2.0750     0.0000     1.1960 ca         1 3RA      -0.099000
      4 CAD          1.3890     0.0010     2.3980 ca         1 3RA      -0.084000
      5 CAE          0.0080     0.0020     2.4080 ca         1 3RA      -0.100000
      6 CAF         -0.6930     0.0080     1.2060 ca         1 3RA      -0.055400
      7 NAG         -2.0860     0.0090     1.2110 nu         1 3RA      -0.121600
      8 CAH         -2.7680     0.6070     0.2010 cc         1 3RA       0.657200
      9 NAI         -4.1290     0.5830     0.0630 nc         1 3RA      -0.624000
     10 CAJ         -4.4640     1.2470    -1.0030 cd         1 3RA       0.366300
     11 CAK         -3.1770     1.7410    -1.6000 c          1 3RA       0.595200
     12 NAL         -2.2050     1.2970    -0.7780 nd         1 3RA      -0.765100
     13 OAM         -3.0420     2.4060    -2.6060 o          1 3RA      -0.507100
     14 CAN         -5.8560     1.4740    -1.5320 c3         1 3RA       0.030600
     15 CAO         -6.8540     0.8020    -0.6250 ca         1 3RA      -0.097300
     16 CAP         -7.3950     1.4970     0.4420 ca         1 3RA      -0.073000
     17 CAQ         -8.3110     0.8800     1.2770 ca         1 3RA       0.058100
     18 CAR         -8.6860    -0.4410     1.0400 ca         1 3RA       0.059100
     19 CAS         -8.1410    -1.1300    -0.0300 ca         1 3RA      -0.085000
     20 CAT         -7.2310    -0.5070    -0.8630 ca         1 3RA      -0.086000
     21 OAU         -8.9800     1.3330     2.3770 os         1 3RA      -0.314900
     22 CAV        -10.0730     0.4140     2.5690 c3         1 3RA       0.432200
     23 OAW         -9.5910    -0.8140     1.9920 os         1 3RA      -0.315900
     24 HAA         -0.5430     0.0020    -0.9380 ha         1 3RA       0.128000
     25 HAB          1.9210    -0.0030    -0.9390 ha         1 3RA       0.106500
     26 HAC          3.1580    -0.0010     1.1920 ha         1 3RA       0.104000
     27 HAD          1.9370    -0.0010     3.3330 ha         1 3RA       0.106500
     28 HAE         -0.5280     0.0060     3.3490 ha         1 3RA       0.128000
     29 HNAG        -2.5850    -0.4490     1.9480 hn         1 3RA       0.286800
     30 HAN         -6.0600     2.5370    -1.5690 hc         1 3RA       0.044200
     31 HANA        -5.9360     1.0570    -2.5290 hc         1 3RA       0.044200
     32 HAP         -7.1160     2.5290     0.6120 ha         1 3RA       0.114000
     33 HAS         -8.4350    -2.1560    -0.2190 ha         1 3RA       0.113000
     34 HAT         -6.8180    -1.0430    -1.7090 ha         1 3RA       0.110000
     35 HAV        -10.9430     0.7600     2.0240 h2         1 3RA       0.014200
     36 HAVA       -10.2560     0.2760     3.6270 h2         1 3RA       0.014200
@<TRIPOS>BOND
     1     1     2 ar  
     2     1     6 ar  
     3     1    24 1   
     4     2     3 ar  
     5     2    25 1   
     6     3     4 ar  
     7     3    26 1   
     8     4     5 ar  
     9     4    27 1   
    10     5     6 ar  
    11     5    28 1   
    12     6     7 1   
    13     7     8 1   
    14     7    29 1   
    15     8     9 1   
    16     8    12 2   
    17     9    10 2   
    18    10    11 1   
    19    10    14 1   
    20    11    12 1   
    21    11    13 2   
    22    14    15 1   
    23    14    30 1   
    24    14    31 1   
    25    15    16 ar  
    26    15    20 ar  
    27    16    17 ar  
    28    16    32 1   
    29    17    18 ar  
    30    17    21 1   
    31    18    19 ar  
    32    18    23 1   
    33    19    20 ar  
    34    19    33 1   
    35    20    34 1   
    36    21    22 1   
    37    22    23 1   
    38    22    35 1   
    39    22    36 1   
@<TRIPOS>SUBSTRUCTURE
     1 3RA         1 TEMP              0 ****  ****    0 ROOT
