@<TRIPOS>MOLECULE
3RB
   46    47     1     0     0
SMALL
bcc


@<TRIPOS>ATOM
      1 C4         -0.3820    0.0180    1.7840 ca        1 3RB     -0.135000
      2 C5          0.8350   -0.0620    1.0960 ca        1 3RB     -0.061300
      3 C6          2.0390    0.0520    1.8140 ca        1 3RB     -0.030800
      4 C7          3.3370   -0.0030    1.1290 ce        1 3RB     -0.092400
      5 C8          4.2270   -0.9670    1.4190 cf        1 3RB     -0.079000
      6 C10         5.7870   -1.8940   -0.2600 ce        1 3RB     -0.074000
      7 C13         6.2890   -4.0080   -2.4280 cf        1 3RB     -0.162200
      8 C15         8.7010   -4.7340   -2.0220 c         1 3RB      0.894800
      9 C20         6.3620   -4.2100   -3.8990 c3        1 3RB     -0.047900
     10 C21         1.4370    0.8340   -1.1710 c3        1 3RB     -0.069400
     11 C2'         3.5920    1.0750    0.1310 c3        1 3RB     -0.030200
     12 C1'         2.9490    0.7930   -1.2130 c3        1 3RB     -0.076400
     13 C18         0.8370   -0.3080   -0.3720 c3        1 3RB     -0.034100
     14 C3         -0.4110    0.2040    3.1640 ca        1 3RB     -0.139000
     15 C2          0.7830    0.3060    3.8760 ca        1 3RB     -0.139000
     16 C1          2.0010    0.2280    3.2040 ca        1 3RB     -0.123000
     17 C9          5.5480   -1.1160    0.8150 cf        1 3RB     -0.152200
     18 C19         6.6440   -0.3930    1.5090 c3        1 3RB     -0.041900
     19 C11         4.7710   -2.6200   -0.9830 ce        1 3RB     -0.205000
     20 C12         5.0030   -3.5300   -1.9470 cf        1 3RB     -0.056000
     21 C14         7.3180   -4.2820   -1.6070 ce        1 3RB     -0.144200
     22 O1          9.6710   -4.0930   -1.5240 o         1 3RB     -0.832300
     23 O2          8.8300   -5.7170   -2.8060 o         1 3RB     -0.832300
     24 H1         -1.3270   -0.0710    1.2270 ha        1 3RB      0.124000
     25 H2          3.9820   -1.7340    2.1760 ha        1 3RB      0.123000
     26 H3          6.8220   -1.9970   -0.6430 ha        1 3RB      0.156000
     27 H4          7.3190   -4.7240   -4.1730 hc        1 3RB      0.036367
     28 H5          5.5060   -4.8380   -4.2500 hc        1 3RB      0.036367
     29 H6          6.3120   -3.2260   -4.4290 hc        1 3RB      0.036367
     30 H7          1.0940    1.8130   -0.7480 hc        1 3RB      0.034700
     31 H8          1.0500    0.7700   -2.2240 hc        1 3RB      0.034700
     32 H9          4.7010    1.1820   -0.0190 hc        1 3RB      0.047200
     33 H10         3.2090    2.0510    0.5320 hc        1 3RB      0.047200
     34 H11         3.3090    1.5630   -1.9470 hc        1 3RB      0.048200
     35 H12         3.2920   -0.2100   -1.5830 hc        1 3RB      0.048200
     36 H13        -0.2160   -0.4810   -0.7250 hc        1 3RB      0.048700
     37 H14         1.4150   -1.2510   -0.5790 hc        1 3RB      0.048700
     38 H15        -1.3740    0.2660    3.6900 ha        1 3RB      0.121000
     39 H16         0.7660    0.4450    4.9660 ha        1 3RB      0.123000
     40 H17         2.9460    0.3030    3.7620 ha        1 3RB      0.134000
     41 H18         7.6340   -0.6100    1.0370 hc        1 3RB      0.035700
     42 H19         6.6890   -0.7000    2.5830 hc        1 3RB      0.035700
     43 H20         6.4650    0.7110    1.4680 hc        1 3RB      0.035700
     44 H21         3.7270   -2.3740   -0.7150 ha        1 3RB      0.105000
     45 H22         4.1330   -3.9760   -2.4650 ha        1 3RB      0.100000
     46 H23         7.2080   -4.1560   -0.5170 ha        1 3RB      0.104000
@<TRIPOS>BOND
     1    1    2 ar  
     2    1   14 ar  
     3    1   24 1   
     4    2    3 ar  
     5    2   13 1   
     6    3    4 1   
     7    3   16 ar  
     8    4    5 2   
     9    4   11 1   
    10    5   17 1   
    11    5   25 1   
    12    6   17 2   
    13    6   19 1   
    14    6   26 1   
    15    7    9 1   
    16    7   20 1   
    17    7   21 2   
    18    8   21 1   
    19    8   22 1   
    20    8   23 1   
    21    9   27 1   
    22    9   28 1   
    23    9   29 1   
    24   10   12 1   
    25   10   13 1   
    26   10   30 1   
    27   10   31 1   
    28   11   12 1   
    29   11   32 1   
    30   11   33 1   
    31   12   34 1   
    32   12   35 1   
    33   13   36 1   
    34   13   37 1   
    35   14   15 ar  
    36   14   38 1   
    37   15   16 ar  
    38   15   39 1   
    39   16   40 1   
    40   17   18 1   
    41   18   41 1   
    42   18   42 1   
    43   18   43 1   
    44   19   20 2   
    45   19   44 1   
    46   20   45 1   
    47   21   46 1   
@<TRIPOS>SUBSTRUCTURE
     1 3RB         1 TEMP              0 ****  ****    0 ROOT
