@<TRIPOS>MOLECULE
molecule
   46    47     1     0     0
SMALL
bcc


@<TRIPOS>ATOM
      1 C4           0.0000     0.0000     0.0000 ca         1 3RB      -0.129000
      2 C5           1.3770     0.0000     0.0000 ca         1 3RB      -0.068300
      3 C6           2.0760     0.0000     1.2070 ca         1 3RB      -0.016800
      4 C7           3.5470     0.0690     1.1890 ce         1 3RB      -0.112400
      5 C8           4.3040    -0.9630     1.6360 cf         1 3RB      -0.122000
      6 C10          6.4470    -1.6310     0.7880 ce         1 3RB      -0.439000
      7 C13          5.9120    -4.2030    -1.7940 cf         1 3RB      -0.129200
      8 C15          6.0130    -5.7450    -3.6330 c          1 3RB       0.934800
      9 C20          4.4090    -4.3150    -1.7920 c3         1 3RB      -0.065900
     10 C21          2.8530     1.3000    -1.5130 c3         1 3RB      -0.077400
     11 C2'          4.1830     1.3360     0.6540 c3         1 3RB      -0.034200
     12 C1'          4.2230     1.3010    -0.8530 c3         1 3RB      -0.074400
     13 C18          2.1380    -0.0320    -1.3130 c3         1 3RB      -0.031100
     14 C3          -0.6880    -0.0240     1.2020 ca         1 3RB      -0.138000
     15 C2          -0.0010    -0.0510     2.4040 ca         1 3RB      -0.154000
     16 C1           1.3780    -0.0350     2.4180 ca         1 3RB      -0.118000
     17 C9           5.7080    -0.8580     1.6340 cf         1 3RB      -0.101200
     18 C19          6.3930     0.1080     2.5650 c3         1 3RB      -0.020900
     19 C11          5.8100    -2.5300    -0.0790 ce         1 3RB      -0.258000
     20 C12          6.5500    -3.3040    -0.9250 cf         1 3RB       0.024000
     21 C14          6.6520    -4.9760    -2.6390 ce         1 3RB      -0.307200
     22 O1           6.7290    -6.6060    -4.3860 o          1 3RB      -0.780800
     23 O2           4.8130    -5.6320    -3.8120 o          1 3RB      -0.780800
     24 H1          -0.5420    -0.0700    -0.9360 ha         1 3RB       0.127000
     25 H2           3.8280    -1.8440     2.0500 ha         1 3RB       0.132000
     26 H3           5.9550    -1.3460    -0.1340 ha         1 3RB       0.341000
     27 H4           4.0230    -3.9840    -0.8350 hc         1 3RB       0.048033
     28 H5           4.0000    -3.6950    -2.5800 hc         1 3RB       0.048033
     29 H6           4.1230    -5.3470    -1.9580 hc         1 3RB       0.048033
     30 H7           2.9720     1.4790    -2.5740 hc         1 3RB       0.039200
     31 H8           2.2520     2.0910    -1.0800 hc         1 3RB       0.039200
     32 H9           3.6020     2.1910     0.9760 hc         1 3RB       0.050700
     33 H10          5.1930     1.4180     1.0360 hc         1 3RB       0.050700
     34 H11          4.7540     2.1830    -1.1910 hc         1 3RB       0.040700
     35 H12          4.7360     0.3950    -1.1510 hc         1 3RB       0.040700
     36 H13          1.4330    -0.1750    -2.1220 hc         1 3RB       0.056700
     37 H14          2.8770    -0.8230    -1.2690 hc         1 3RB       0.056700
     38 H15         -1.7710    -0.0200     1.2020 ha         1 3RB       0.117000
     39 H16         -0.5490    -0.0850     3.3380 ha         1 3RB       0.119000
     40 H17          1.7020     0.0010     3.4510 ha         1 3RB       0.133000
     41 H18          7.0640    -0.4360     3.2200 hc         1 3RB       0.032033
     42 H19          5.6490     0.6250     3.1600 hc         1 3RB       0.032033
     43 H20          6.9580     0.8290     1.9870 hc         1 3RB       0.032033
     44 H21          4.7290    -2.6100    -0.0780 ha         1 3RB       0.100000
     45 H22          7.6310    -3.2230    -0.9270 ha         1 3RB       0.156000
     46 H23          6.2580    -5.9580    -2.4070 ha         1 3RB       0.164000
@<TRIPOS>BOND
     1    18    17 1
     2     6    17 2
     3     6    19 1
     4    17     5 1
     5    20    19 2
     6    20     7 1
     7    21     7 2
     8    21     8 1
     9     7     9 1
    10    23     8 1
    11     8    22 1
    12    12    11 1
    13    12    10 1
    14     5     4 2
    15    11     4 1
    16     4     3 1
    17    10    13 1
    18     3     2 ar
    19     3    16 ar
    20    13     2 1
    21     2     1 ar
    22    16    15 ar
    23     1    14 ar
    24    15    14 ar
    25     1    24 1
    26     5    25 1
    27     6    26 1
    28     9    27 1
    29     9    28 1
    30     9    29 1
    31    10    30 1
    32    10    31 1
    33    11    32 1
    34    11    33 1
    35    12    34 1
    36    12    35 1
    37    13    36 1
    38    13    37 1
    39    14    38 1
    40    15    39 1
    41    16    40 1
    42    18    41 1
    43    18    42 1
    44    18    43 1
    45    19    44 1
    46    20    45 1
    47    21    46 1
@<TRIPOS>SUBSTRUCTURE
     1 3RB         1 TEMP              0 ****  ****    0 ROOT
