@<TRIPOS>MOLECULE
3RC
   34    37     1     0     0
SMALL
bcc


@<TRIPOS>ATOM
      1 C1          0.0520   -0.6890    0.0100 ca        1 3RC     -0.280300
      2 C2          1.4080   -0.2730    0.0030 ca        1 3RC      0.414200
      3 N3          2.0700    0.2170    1.0570 nb        1 3RC     -0.676000
      4 C4         -0.6950   -0.6020    1.1770 ca        1 3RC     -0.032000
      5 C5         -0.0660   -0.1000    2.3190 ca        1 3RC     -0.171100
      6 C6          1.3320    0.3000    2.2040 ca        1 3RC      0.417800
      7 N7          1.7500    0.7690    3.4610 na        1 3RC     -0.282100
      8 C8          0.6750    0.6770    4.3410 cc        1 3RC     -0.097100
      9 C9         -0.4500    0.1530    3.6900 cd        1 3RC     -0.157000
     10 C10        -1.7210   -0.0740    4.2940 cd        1 3RC      0.360100
     11 N11        -2.8720   -0.5780    3.6240 nd        1 3RC     -0.353000
     12 N12        -3.8390   -0.6680    4.4370 nc        1 3RC     -0.166800
     13 N13        -3.4510   -0.2750    5.6750 na        1 3RC      0.048400
     14 C14        -2.1080    0.1310    5.6370 cc        1 3RC     -0.230600
     15 C15        -4.3160   -0.1830    6.8360 c3        1 3RC      0.102600
     16 C16        -5.0200    1.1330    6.9820 ca        1 3RC     -0.125300
     17 C17        -4.7770    1.9330    8.1030 ca        1 3RC     -0.108500
     18 C18        -5.4600    3.1380    8.2620 ca        1 3RC     -0.131000
     19 C19        -6.3820    3.5510    7.3010 ca        1 3RC     -0.117000
     20 C20        -6.6230    2.7570    6.1790 ca        1 3RC     -0.131000
     21 C21        -5.9450    1.5490    6.0190 ca        1 3RC     -0.108500
     22 H1         -0.3950   -1.0760   -0.9150 ha        1 3RC      0.142000
     23 H2          2.0000   -0.3420   -0.9280 h4        1 3RC      0.019100
     24 H3         -1.7480   -0.9190    1.2060 ha        1 3RC      0.163000
     25 H4          2.6500    1.1090    3.6730 hn        1 3RC      0.310700
     26 H5          0.7810    0.9930    5.3810 h4        1 3RC      0.166000
     27 H6         -1.5700    0.4990    6.5050 h4        1 3RC      0.187000
     28 H7         -3.6720   -0.3780    7.7410 h1        1 3RC      0.075200
     29 H8         -5.0910   -1.0030    6.7680 h1        1 3RC      0.075200
     30 H9         -4.0500    1.6120    8.8640 ha        1 3RC      0.139500
     31 H10        -5.2690    3.7620    9.1470 ha        1 3RC      0.136000
     32 H11        -6.9180    4.5040    7.4260 ha        1 3RC      0.135000
     33 H12        -7.3480    3.0830    5.4190 ha        1 3RC      0.136000
     34 H13        -6.1360    0.9220    5.1330 ha        1 3RC      0.139500
@<TRIPOS>BOND
     1    1    2 ar  
     2    1    4 ar  
     3    1   22 1   
     4    2    3 ar  
     5    2   23 1   
     6    3    6 ar  
     7    4    5 ar  
     8    4   24 1   
     9    5    6 ar  
    10    5    9 1   
    11    6    7 1   
    12    7    8 1   
    13    7   25 1   
    14    8    9 2   
    15    8   26 1   
    16    9   10 1   
    17   10   11 1   
    18   10   14 2   
    19   11   12 2   
    20   12   13 1   
    21   13   14 1   
    22   13   15 1   
    23   14   27 1   
    24   15   16 1   
    25   15   28 1   
    26   15   29 1   
    27   16   17 ar  
    28   16   21 ar  
    29   17   18 ar  
    30   17   30 1   
    31   18   19 ar  
    32   18   31 1   
    33   19   20 ar  
    34   19   32 1   
    35   20   21 ar  
    36   20   33 1   
    37   21   34 1   
@<TRIPOS>SUBSTRUCTURE
     1 3RC         1 TEMP              0 ****  ****    0 ROOT
