@<TRIPOS>MOLECULE
molecule
   34    37     1     0     0
SMALL
bcc


@<TRIPOS>ATOM
      1 C1           0.0000     0.0000     0.0000 ca         1 3RC      -0.291300
      2 C2           1.3860     0.0000     0.0000 ca         1 3RC       0.450200
      3 N3           2.0750     0.0000     1.1220 nb         1 3RC      -0.720000
      4 C4          -0.6790    -0.0000     1.2040 ca         1 3RC      -0.030000
      5 C5           0.0720     0.0000     2.3800 ca         1 3RC      -0.199100
      6 C6           1.4770    -0.0000     2.3070 ca         1 3RC       0.464800
      7 N7           1.9520     0.0010     3.5970 na         1 3RC      -0.277100
      8 C8           0.9100     0.0020     4.4840 cc         1 3RC      -0.088100
      9 C9          -0.2640     0.0010     3.8120 cd         1 3RC      -0.171000
     10 C10         -1.6260     0.0020     4.4030 cd         1 3RC       0.379100
     11 N11         -2.7950     0.0010     3.7390 nd         1 3RC      -0.363000
     12 N12         -3.7580     0.0000     4.5920 nc         1 3RC      -0.194800
     13 N13         -3.2960     0.0010     5.7930 na         1 3RC       0.131400
     14 C14         -1.9430    -0.0040     5.7310 cc         1 3RC      -0.300600
     15 C15         -4.0960     0.0010     7.0180 c3         1 3RC       0.110600
     16 C16         -5.0550     1.1640     6.9930 ca         1 3RC      -0.125300
     17 C17         -4.6720     2.3860     7.5120 ca         1 3RC      -0.097000
     18 C18         -5.5480     3.4550     7.4830 ca         1 3RC      -0.129500
     19 C19         -6.8080     3.3010     6.9360 ca         1 3RC      -0.110000
     20 C20         -7.1900     2.0790     6.4160 ca         1 3RC      -0.129500
     21 C21         -6.3140     1.0100     6.4450 ca         1 3RC      -0.097000
     22 H1          -0.5460    -0.0000    -0.9350 ha         1 3RC       0.139000
     23 H2           1.9150     0.0000    -0.9450 h4         1 3RC       0.022100
     24 H3          -1.7620    -0.0000     1.2340 ha         1 3RC       0.161000
     25 H4           2.9200     0.0010     3.8500 hn         1 3RC       0.305700
     26 H5           1.0100     0.0030     5.5630 h4         1 3RC       0.166000
     27 H6          -1.2520    -0.0050     6.5660 h4         1 3RC       0.177000
     28 H7          -4.6540    -0.9250     7.0850 h1         1 3RC       0.071700
     29 H8          -3.4420     0.0910     7.8770 h1         1 3RC       0.071700
     30 H9          -3.6840     2.5070     7.9410 ha         1 3RC       0.134500
     31 H10         -5.2480     4.4130     7.8910 ha         1 3RC       0.135000
     32 H11         -7.4950     4.1380     6.9130 ha         1 3RC       0.133000
     33 H12         -8.1770     1.9580     5.9860 ha         1 3RC       0.135000
     34 H13         -6.6140     0.0520     6.0370 ha         1 3RC       0.134500
@<TRIPOS>BOND
     1    18    19 ar  
     2    18    17 ar  
     3    19    20 ar  
     4    17    16 ar  
     5    20    21 ar  
     6    16    21 ar  
     7    16    15 1   
     8     1     4 ar  
     9     1     2 ar  
    10     4     5 ar  
    11     2     3 ar  
    12    15    13 1   
    13    14    13 1   
    14    14    10 2   
    15     3     6 ar  
    16     5     6 ar  
    17     5     9 1   
    18    13    12 1   
    19     6     7 1   
    20    10     9 1   
    21    10    11 1   
    22     9     8 2   
    23    12    11 2   
    24     7     8 1   
    25     1    22 1   
    26     2    23 1   
    27     4    24 1   
    28     7    25 1   
    29     8    26 1   
    30    14    27 1   
    31    15    28 1   
    32    15    29 1   
    33    17    30 1   
    34    18    31 1   
    35    19    32 1   
    36    20    33 1   
    37    21    34 1   
@<TRIPOS>SUBSTRUCTURE
     1 3RC         1 TEMP              0 ****  ****    0 ROOT
