@<TRIPOS>MOLECULE
molecule
   38    39     1     0     0
SMALL
bcc


@<TRIPOS>ATOM
      1 N1           0.0000     0.0000     0.0000 ne         1 3RD      -0.187400
      2 C1           3.2980    -0.0010    -3.5770 ca         1 3RD       0.007800
      3 C2           1.9080    -0.0010    -3.4930 ca         1 3RD       0.352600
      4 N2           1.3010    -0.0010    -2.3290 nb         1 3RD      -0.684000
      5 C3           1.9730     0.0000    -1.1810 ca         1 3RD       0.592300
      6 C4           3.3680     0.0000    -1.1700 ca         1 3RD      -0.057600
      7 C5           4.0550    -0.0060    -2.3890 ca         1 3RD      -0.196600
      8 C6           5.5260    -0.0060    -2.4300 c          1 3RD       0.600500
      9 O1           6.1030    -0.0110    -3.4960 o          1 3RD      -0.581100
     10 C8           4.1240     0.0010     0.1340 c3         1 3RD       0.249700
     11 O3           4.3630    -1.3460     0.5470 os         1 3RD      -0.558200
     12 P1           5.1480    -1.7210     1.9010 p5         1 3RD       1.166900
     13 O4           4.4930    -1.0570     3.0510 o          1 3RD      -0.898833
     14 O5           5.1190    -3.3160     2.1150 o          1 3RD      -0.898833
     15 O6           6.6750    -1.2230     1.7930 o          1 3RD      -0.898833
     16 N3           1.2900     0.0000     0.0000 nf         1 3RD      -0.285000
     17 H1           6.0940     0.0150    -1.5070 h4         1 3RD       0.063200
     18 H2           4.0520     0.8870    -5.0670 ho         1 3RD       0.401000
     19 H3           1.2100     0.9460    -5.2680 hc         1 3RD       0.033700
     20 H4           0.0430    -0.1470    -4.5100 hc         1 3RD       0.033700
     21 H5           1.4220    -0.8050    -5.4030 hc         1 3RD       0.033700
     22 H6           3.5400     0.5120     0.8890 h1         1 3RD       0.029700
     23 H7           5.0700     0.5120     0.0020 h1         1 3RD       0.029700
     24 C9          -0.6840     0.0000     1.1820 ca         1 3RD       0.049400
     25 C10         -2.0830     0.0010     1.1820 ca         1 3RD      -0.103000
     26 C11         -2.7710     0.0010     2.3730 ca         1 3RD      -0.127500
     27 C12         -2.0720     0.0020     3.5840 ca         1 3RD      -0.084600
     28 C13         -0.6750     0.0010     3.5850 ca         1 3RD      -0.127500
     29 C14          0.0140    -0.0050     2.3950 ca         1 3RD      -0.103000
     30 C15         -2.8120     0.0030     4.8630 c          1 3RD       0.884200
     31 O7          -2.1380     0.0040     6.0300 o          1 3RD      -0.849800
     32 O8          -4.0260     0.0040     4.8620 o          1 3RD      -0.849800
     33 H10         -2.6250     0.0000     0.2440 ha         1 3RD       0.148000
     34 H11         -3.8540     0.0020     2.3730 ha         1 3RD       0.151000
     35 H12         -0.1340    -0.0000     4.5240 ha         1 3RD       0.151000
     36 H13          1.0980    -0.0050     2.3960 ha         1 3RD       0.148000
     37 O2           3.9140    -0.0020    -4.7840 oh         1 3RD      -0.509100
     38 C7           1.0880    -0.0020    -4.7570 c3         1 3RD      -0.125400
@<TRIPOS>BOND
     1     1    16 2
     2     2     3 ar
     3     2    37 1
     4     3    38 1
     5     4     3 ar
     6     5     4 ar
     7     6     5 ar
     8     6     7 ar
     9     7     2 ar
    10     8     7 1
    11     8     9 2
    12     8    17 1
    13    37    18 1
    14    38    19 1
    15    38    20 1
    16    38    21 1
    17    10     6 1
    18    10    11 1
    19    10    22 1
    20    10    23 1
    21    12    11 1
    22    12    15 1
    23    13    12 1
    24    14    12 1
    25    16     5 1
    26     1    24 1
    27    24    25 ar
    28    24    29 ar
    29    25    26 ar
    30    26    27 ar
    31    27    28 ar
    32    28    29 ar
    33    27    30 1
    34    30    31 1
    35    30    32 1
    36    25    33 1
    37    26    34 1
    38    28    35 1
    39    29    36 1
@<TRIPOS>SUBSTRUCTURE
     1 3RD         1 TEMP              0 ****  ****    0 ROOT
