@<TRIPOS>MOLECULE
molecule
   48    51     1     0     0
SMALL
bcc


@<TRIPOS>ATOM
      1 N1           0.0000     0.0000     0.0000 nb         1 3RE      -0.794000
      2 C2           1.3290     0.0000     0.0000 ca         1 3RE       0.983900
      3 N3           2.0390     0.0000     1.1170 nb         1 3RE      -0.820000
      4 C4           1.4350    -0.0010     2.3000 ca         1 3RE       0.625200
      5 C5           0.0250    -0.0020     2.3420 ca         1 3RE      -0.400400
      6 C6          -0.6820    -0.0010     1.1300 ca         1 3RE       0.538600
      7 N7           2.1640    -0.0020     3.4630 n          1 3RE      -0.406300
      8 C8           1.5460    -0.0040     4.6600 c          1 3RE       0.704700
      9 C9           0.0840    -0.0050     4.7390 cc         1 3RE      -0.223000
     10 C10         -0.6510    -0.0020     3.5840 cd         1 3RE      -0.019200
     11 N11          1.9930     0.0010    -1.2110 nv         1 3RE      -1.028500
     12 C12         -2.1890    -0.0010     1.1180 c3         1 3RE      -0.149400
     13 O13          2.2080    -0.0050     5.6830 o          1 3RE      -0.602500
     14 C14          3.6270    -0.0020     3.4020 c3         1 3RE       0.107700
     15 C15          4.1670    -1.2510     4.1000 c3         1 3RE      -0.099900
     16 C16          5.6960    -1.2510     4.0360 c3         1 3RE      -0.084900
     17 C17          6.2360    -0.0020     4.7360 c3         1 3RE       0.140100
     18 C18          5.6950     1.2480     4.0390 c3         1 3RE      -0.084900
     19 C19          4.1670     1.2470     4.1020 c3         1 3RE      -0.099900
     20 O20          7.6630    -0.0020     4.6780 os         1 3RE      -0.428600
     21 C21         -0.5940    -0.0060     6.0560 cc         1 3RE       0.401100
     22 C22         -1.9870    -0.0130     6.2730 cc         1 3RE      -0.343300
     23 C23         -2.1990    -0.0140     7.6070 cd         1 3RE      -0.116300
     24 N24         -0.9960    -0.0080     8.2200 na         1 3RE      -0.044600
     25 N25         -0.0020    -0.0080     7.2330 nd         1 3RE      -0.456800
     26 C26          8.2910     0.6500     5.7830 c3         1 3RE       0.129700
     27 H10         -1.7330    -0.0030     3.6210 ha         1 3RE       0.146000
     28 HN11         1.8020     0.7170    -1.8840 hn         1 3RE       0.450800
     29 HN1A         2.6550    -0.7200    -1.4190 hn         1 3RE       0.450800
     30 H12         -2.5540     0.8860     1.6210 hc         1 3RE       0.061700
     31 H12A        -2.5420    -0.0070     0.0940 hc         1 3RE       0.061700
     32 H12B        -2.5540    -0.8830     1.6310 hc         1 3RE       0.061700
     33 H14          3.9500    -0.0010     2.3680 h1         1 3RE       0.096700
     34 H15          3.8500    -1.2500     5.1360 hc         1 3RE       0.064700
     35 H15A         3.7860    -2.1350     3.6020 hc         1 3RE       0.064700
     36 H16          6.0770    -2.1350     4.5320 hc         1 3RE       0.051200
     37 H16A         6.0130    -1.2470     3.0000 hc         1 3RE       0.051200
     38 H17          5.9130    -0.0040     5.7710 h1         1 3RE       0.045700
     39 H18          6.0750     2.1310     4.5380 hc         1 3RE       0.051200
     40 H18A         6.0120     1.2480     3.0030 hc         1 3RE       0.051200
     41 H19          3.8500     1.2440     5.1380 hc         1 3RE       0.064700
     42 H19A         3.7860     2.1310     3.6050 hc         1 3RE       0.064700
     43 H22         -2.7520    -0.0160     5.5050 ha         1 3RE       0.150000
     44 H23         -3.1640    -0.0170     8.0980 h4         1 3RE       0.168000
     45 H26          8.0140     0.1480     6.7020 h1         1 3RE       0.029033
     46 H26A         7.9680     1.6830     5.8240 h1         1 3RE       0.029033
     47 H26B         9.3670     0.6120     5.6600 h1         1 3RE       0.029033
     48 HN24        -0.8410    -0.0090     9.2080 hn         1 3RE       0.330700
@<TRIPOS>BOND
     1     1     6 ar
     2     1     2 ar
     3    11     2 1
     4     2     3 ar
     5     3     4 ar
     6     5     4 ar
     7     4     7 1
     8     6     5 ar
     9     5    10 1
    10    12     6 1
    11     7     8 1
    12     7    14 1
    13     9     8 1
    14     8    13 2
    15    10     9 2
    16     9    21 1
    17    10    27 1
    18    11    28 1
    19    11    29 1
    20    12    30 1
    21    12    31 1
    22    12    32 1
    23    19    14 1
    24    14    15 1
    25    14    33 1
    26    15    16 1
    27    15    34 1
    28    15    35 1
    29    17    16 1
    30    16    36 1
    31    16    37 1
    32    18    17 1
    33    17    20 1
    34    17    38 1
    35    19    18 1
    36    18    39 1
    37    18    40 1
    38    19    41 1
    39    19    42 1
    40    20    26 1
    41    22    21 1
    42    21    25 2
    43    22    23 2
    44    22    43 1
    45    23    24 1
    46    23    44 1
    47    25    24 1
    48    26    45 1
    49    26    46 1
    50    26    47 1
    51    24    48 1
@<TRIPOS>SUBSTRUCTURE
     1 3RE         1 TEMP              0 ****  ****    0 ROOT
