@<TRIPOS>MOLECULE
molecule
   46    50     1     0     0
SMALL
bcc


@<TRIPOS>ATOM
      1 C13          0.0000     0.0000     0.0000 ca         1 3RF      -0.077000
      2 C15          0.0130    -0.0120    -2.3980 ca         1 3RF      -0.085000
      3 C17          2.1510     0.0000     1.2010 ca         1 3RF       0.785200
      4 C22          4.0320     0.0010     4.9870 cc         1 3RF      -0.035600
      5 C24          5.6910    -0.7770     6.8260 cx         1 3RF      -0.134900
      6 C26          3.6870     0.0010     3.6800 cd         1 3RF      -0.329300
      7 C02          7.5060    -0.3640    -3.7100 ca         1 3RF       0.142600
      8 C03          6.2980    -1.0210    -3.5230 ca         1 3RF      -0.129000
      9 C04          5.6240    -0.8990    -2.3230 ca         1 3RF      -0.140500
     10 C05          8.0410     0.4120    -2.6900 ca         1 3RF      -0.129000
     11 C06          7.3700     0.5280    -1.4880 ca         1 3RF      -0.140500
     12 C07          6.1560    -0.1200    -1.3050 ca         1 3RF       0.154600
     13 C09          4.0910    -0.0000    -0.0640 ca         1 3RF       0.974900
     14 N10          3.4400    -0.0010    -1.2120 nb         1 3RF      -0.824000
     15 C11          2.0990    -0.0020    -1.2310 ca         1 3RF       0.514600
     16 C12          1.3990     0.0000     0.0000 ca         1 3RF      -0.355600
     17 C14         -0.6730    -0.0060    -1.1870 ca         1 3RF      -0.161000
     18 C16          1.3760    -0.0120    -2.4320 ca         1 3RF      -0.197300
     19 N18          1.5230     0.0000     2.4290 nu         1 3RF      -0.830600
     20 C19          2.2840     0.0010     3.6050 cd         1 3RF       0.581200
     21 N20          1.8110     0.0020     4.8290 nc         1 3RF      -0.558800
     22 N21          2.8950    -0.0050     5.7160 na         1 3RF      -0.041600
     23 C23          5.4360     0.0010     5.5340 cx         1 3RF      -0.067400
     24 C25          5.6840     0.7540     6.8430 cx         1 3RF      -0.134900
     25 N27          3.4740     0.0010     1.1140 nb         1 3RF      -0.858000
     26 H131        -0.5450     0.0050     0.9360 ha         1 3RF       0.122000
     27 H151        -0.5440    -0.0160    -3.3260 ha         1 3RF       0.133000
     28 H241         6.6660    -1.2410     6.9080 hc         1 3RF       0.077700
     29 H242         4.8220    -1.2530     7.2640 hc         1 3RF       0.077700
     30 H261         4.3700     0.0040     2.8400 ha         1 3RF       0.199000
     31 H011         8.0110     0.1620    -5.6680 hn         1 3RF       0.424800
     32 H012         8.8540    -1.2230    -5.0550 hn         1 3RF       0.424800
     33 H031         5.8830    -1.6290    -4.3170 ha         1 3RF       0.135500
     34 H041         4.6790    -1.4080    -2.1790 ha         1 3RF       0.144000
     35 H051         8.9880     0.9170    -2.8330 ha         1 3RF       0.135500
     36 H061         7.7860     1.1350    -0.6920 ha         1 3RF       0.144000
     37 H081         5.9890     0.0720     0.7690 hn         1 3RF       0.461800
     38 H141        -1.7560    -0.0060    -1.1860 ha         1 3RF       0.131000
     39 H161         1.8970    -0.0170    -3.3820 ha         1 3RF       0.152000
     40 H181         0.5240     0.0010     2.4790 hn         1 3RF       0.470800
     41 H211         2.8380    -0.0050     6.7150 hn         1 3RF       0.329700
     42 H231         6.2680     0.0130     4.8400 hc         1 3RF       0.101700
     43 H251         4.8110     1.2130     7.2910 hc         1 3RF       0.077700
     44 H252         6.6560     1.2240     6.9350 hc         1 3RF       0.077700
     45 N08          5.4750    -0.0010    -0.0870 nu         1 3RF      -0.754300
     46 N01          8.1890    -0.4870    -4.9260 nv         1 3RF      -0.991200
@<TRIPOS>BOND
     1    17     2 ar  
     2    17     1 ar  
     3     2    18 ar  
     4     1    16 ar  
     5    18    15 ar  
     6    16    15 ar  
     7    16     3 ar  
     8    15    14 ar  
     9    19     3 1   
    10    19    20 1   
    11     3    25 ar  
    12    21    20 2   
    13    21    22 1   
    14    14    13 ar  
    15    20     6 1   
    16    25    13 ar  
    17    22     4 1   
    18    13    45 1   
    19     6     4 2   
    20     4    23 1   
    21    45    12 1   
    22    11    12 ar  
    23    11    10 ar  
    24    23     5 1   
    25    23    24 1   
    26    12     9 ar  
    27     5    24 1   
    28    10     7 ar  
    29     9     8 ar  
    30     7     8 ar  
    31     7    46 1   
    32     1    26 1   
    33     2    27 1   
    34     5    28 1   
    35     5    29 1   
    36     6    30 1   
    37    46    31 1   
    38    46    32 1   
    39     8    33 1   
    40     9    34 1   
    41    10    35 1   
    42    11    36 1   
    43    45    37 1   
    44    17    38 1   
    45    18    39 1   
    46    19    40 1   
    47    22    41 1   
    48    23    42 1   
    49    24    43 1   
    50    24    44 1   
@<TRIPOS>SUBSTRUCTURE
     1 3RF         1 TEMP              0 ****  ****    0 ROOT
