@<TRIPOS>MOLECULE
molecule
   21    21     1     0     0
SMALL
bcc


@<TRIPOS>ATOM
      1 C            0.0000     0.0000     0.0000 c          1 3RG       0.884600
      2 N            0.1980    -0.0050     2.4190 nu         1 3RG      -0.774600
      3 O            1.2080     0.0000     0.0000 o          1 3RG      -0.854300
      4 CA          -0.7540     0.0000     1.3040 c3         1 3RG       0.113800
      5 OAB          2.9360    -0.4600     5.5540 o          1 3RG      -0.848800
      6 OAD          2.5080    -0.1190     3.4020 o          1 3RG      -0.848800
      7 CAE         -2.0820     0.1110     5.2880 ca         1 3RG      -0.104000
      8 CAF         -1.1940    -0.0070     6.3460 ca         1 3RG      -0.270000
      9 CAG         -1.6240     0.1130     3.9870 ca         1 3RG      -0.269000
     10 CAH          0.1580    -0.1210     6.1090 ca         1 3RG      -0.054000
     11 CAL          2.0850    -0.2300     4.5350 c          1 3RG       0.898200
     12 CAM         -0.2650    -0.0070     3.7270 ca         1 3RG       0.240600
     13 CAN          0.6400    -0.1160     4.7960 ca         1 3RG      -0.209600
     14 OXT         -0.6700     0.0050    -1.1630 o          1 3RG      -0.854300
     15 HN           1.1820     0.0260     2.2360 hn         1 3RG       0.517800
     16 HA          -1.3740     0.8870     1.3630 h1         1 3RG       0.015700
     17 HAA         -1.3790    -0.8830     1.3600 h1         1 3RG       0.015700
     18 HAE         -3.1440     0.2020     5.4850 ha         1 3RG       0.077000
     19 HAF         -1.5640    -0.0100     7.3640 ha         1 3RG       0.079000
     20 HAG         -2.3260     0.2060     3.1670 ha         1 3RG       0.113000
     21 HAH          0.8480    -0.2130     6.9390 ha         1 3RG       0.132000
@<TRIPOS>BOND
     1     3     1 1   
     2     1    14 1   
     3     1     4 1   
     4     4     2 1   
     5     2    12 1   
     6     2    15 1   
     7     4    16 1   
     8     4    17 1   
     9    11     5 1   
    10     6    11 1   
    11     9     7 ar  
    12     7     8 ar  
    13     7    18 1   
    14    10     8 ar  
    15     8    19 1   
    16    12     9 ar  
    17     9    20 1   
    18    13    10 ar  
    19    10    21 1   
    20    11    13 1   
    21    12    13 ar  
@<TRIPOS>SUBSTRUCTURE
     1 3RG         1 TEMP              0 ****  ****    0 ROOT
