@<TRIPOS>MOLECULE
molecule
   36    39     1     0     0
SMALL
bcc


@<TRIPOS>ATOM
      1 C1           0.0000     0.0000     0.0000 ca         1 3RH       0.529800
      2 C2           1.3970     0.0000     0.0000 ca         1 3RH      -0.333900
      3 N3          -0.6490     0.0310     1.1570 nb         1 3RH      -0.744000
      4 C4           0.0230     0.0410     2.3000 ca         1 3RH       0.926900
      5 N5          -0.6790     0.0740     3.4920 nv         1 3RH      -1.058500
      6 N6           1.3470     0.0200     2.3300 nb         1 3RH      -0.749000
      7 C7           2.0580     0.0000     1.2120 ca         1 3RH       0.467200
      8 C8           2.1520     0.0260    -1.2980 c3         1 3RH      -0.016100
      9 C9           1.4250    -0.7900    -2.3640 c3         1 3RH       0.023900
     10 C10          1.5130    -2.2520    -2.0140 ca         1 3RH      -0.082300
     11 C11         -0.0230    -0.3870    -2.4480 ca         1 3RH      -0.048300
     12 C12         -0.7150    -0.0200    -1.2950 ca         1 3RH      -0.154500
     13 C13          2.1190    -3.1360    -2.8870 ca         1 3RH      -0.122500
     14 C14          2.2000    -4.4790    -2.5670 ca         1 3RH      -0.126000
     15 C15          1.6750    -4.9370    -1.3730 ca         1 3RH      -0.128000
     16 C16          1.0690    -4.0530    -0.4990 ca         1 3RH      -0.126000
     17 C17          0.9930    -2.7100    -0.8180 ca         1 3RH      -0.122500
     18 C18         -0.6730    -0.3830    -3.6660 ca         1 3RH      -0.129000
     19 C19         -2.0070    -0.0270    -3.7390 ca         1 3RH      -0.109000
     20 C20         -2.7000     0.3270    -2.5950 ca         1 3RH      -0.141000
     21 C21         -2.0600     0.3310    -1.3710 ca         1 3RH      -0.078000
     22 HN5         -0.8570    -0.7750     3.9920 hn         1 3RH       0.444800
     23 HN5A        -1.0000     0.9480     3.8600 hn         1 3RH       0.444800
     24 H7           3.1400    -0.0170     1.2490 h4         1 3RH       0.031100
     25 H8           3.1300    -0.4120    -1.1360 hc         1 3RH       0.061700
     26 H8A          2.2200     1.0530    -1.6360 hc         1 3RH       0.061700
     27 H9           1.8970    -0.6190    -3.3240 hc         1 3RH       0.065700
     28 H13          2.5310    -2.7770    -3.8230 ha         1 3RH       0.134500
     29 H14          2.6750    -5.1710    -3.2510 ha         1 3RH       0.130000
     30 H15          1.7360    -5.9890    -1.1230 ha         1 3RH       0.129000
     31 H16          0.6590    -4.4120     0.4370 ha         1 3RH       0.130000
     32 H17          0.5180    -2.0170    -0.1330 ha         1 3RH       0.134500
     33 H18         -0.1360    -0.6590    -4.5660 ha         1 3RH       0.133000
     34 H19         -2.5140    -0.0290    -4.6970 ha         1 3RH       0.131000
     35 H20         -3.7450     0.6050    -2.6590 ha         1 3RH       0.134000
     36 H21         -2.6020     0.6080    -0.4740 ha         1 3RH       0.155000
@<TRIPOS>BOND
     1    12     1 1   
     2     2     1 ar  
     3     1     3 ar  
     4     8     2 1   
     5     2     7 ar  
     6     3     4 ar  
     7     6     4 ar  
     8     4     5 1   
     9     5    22 1   
    10     5    23 1   
    11     7     6 ar  
    12     7    24 1   
    13     9     8 1   
    14     8    25 1   
    15     8    26 1   
    16    10     9 1   
    17     9    11 1   
    18     9    27 1   
    19    17    10 ar  
    20    13    10 ar  
    21    18    11 ar  
    22    11    12 ar  
    23    12    21 ar  
    24    14    13 ar  
    25    13    28 1   
    26    15    14 ar  
    27    14    29 1   
    28    15    16 ar  
    29    15    30 1   
    30    16    17 ar  
    31    16    31 1   
    32    17    32 1   
    33    18    19 ar  
    34    18    33 1   
    35    19    20 ar  
    36    19    34 1   
    37    20    21 ar  
    38    20    35 1   
    39    21    36 1   
@<TRIPOS>SUBSTRUCTURE
     1 3RH         1 TEMP              0 ****  ****    0 ROOT
