@<TRIPOS>MOLECULE
molecule
   31    31     1     0     0
SMALL
bcc


@<TRIPOS>ATOM
      1 OAA          0.0000     0.0000     0.0000 oh         1 3RI      -0.593800
      2 OAB          0.5820    -1.3620     5.5950 oh         1 3RI      -0.597800
      3 OAC          2.3120    -4.8280     1.3690 oh         1 3RI      -0.597800
      4 OAD         -0.4050    -3.8230     5.0170 oh         1 3RI      -0.590800
      5 OAE          0.3780    -5.2980     2.9280 oh         1 3RI      -0.590800
      6 CAF          1.4290     0.0000     0.0000 c3         1 3RI       0.139400
      7 CAG          1.9380     0.0000     1.4430 c3         1 3RI       0.169800
      8 CAH          1.8060    -1.1980     3.5180 c3         1 3RI       0.146300
      9 CAI          2.1730    -2.4190     1.4300 c3         1 3RI       0.146300
     10 CAJ          0.6180    -1.8490     4.2520 c3         1 3RI       0.134600
     11 CAK          2.0500    -3.7230     2.2380 c3         1 3RI       0.134600
     12 CAL          0.7050    -3.3050     4.2800 c3         1 3RI       0.139100
     13 CAM          0.6900    -3.9050     2.8570 c3         1 3RI       0.139100
     14 NAN          1.5490    -1.2550     2.0990 n3         1 3RI      -0.732600
     15 HOAA        -0.3140     0.3940    -0.7970 ho         1 3RI       0.397000
     16 HOAB        -0.1350    -0.7570     5.6910 ho         1 3RI       0.405500
     17 HOAC         3.1950    -5.1300     1.5030 ho         1 3RI       0.405500
     18 HOAD        -0.0890    -4.2980     5.7680 ho         1 3RI       0.411500
     19 HOAE        -0.4270    -5.4640     2.4660 ho         1 3RI       0.411500
     20 HAF          1.7900     0.8850    -0.5110 h1         1 3RI       0.025200
     21 HAFA         1.7900    -0.8840    -0.5110 h1         1 3RI       0.025200
     22 HAG          3.0180     0.0890     1.4440 h1         1 3RI       0.042700
     23 HAGA         1.5070     0.8370     1.9780 h1         1 3RI       0.042700
     24 HAH          1.9030    -0.1650     3.8290 h1         1 3RI       0.044700
     25 HAHA         2.7150    -1.7410     3.7460 h1         1 3RI       0.044700
     26 HAI          3.2230    -2.2060     1.2740 h1         1 3RI       0.044700
     27 HAIA         1.6950    -2.5620     0.4690 h1         1 3RI       0.044700
     28 HAJ         -0.2980    -1.5650     3.7480 h1         1 3RI       0.049200
     29 HAK          2.7920    -3.7120     3.0280 h1         1 3RI       0.049200
     30 HAL          1.6260    -3.5920     4.7720 h1         1 3RI       0.055200
     31 HAM         -0.0520    -3.3920     2.2560 h1         1 3RI       0.055200
@<TRIPOS>BOND
     1     1     6 1
     2     1    15 1
     3     2    10 1
     4     2    16 1
     5    11     3 1
     6     3    17 1
     7     4    12 1
     8     4    18 1
     9    13     5 1
    10     5    19 1
    11     6     7 1
    12     6    20 1
    13     6    21 1
    14     7    14 1
    15     7    22 1
    16     7    23 1
    17    10     8 1
    18     8    14 1
    19     8    24 1
    20     8    25 1
    21    14     9 1
    22     9    11 1
    23     9    26 1
    24     9    27 1
    25    10    12 1
    26    10    28 1
    27    13    11 1
    28    11    29 1
    29    12    13 1
    30    12    30 1
    31    13    31 1
@<TRIPOS>SUBSTRUCTURE
     1 3RI         1 TEMP              0 ****  ****    0 ROOT
