@<TRIPOS>MOLECULE
molecule
   50    55     1     0     0
SMALL
bcc


@<TRIPOS>ATOM
      1 C13          0.0000     0.0000     0.0000 cy         1 3RJ      -0.026400
      2 C15          1.4590     0.0000     1.5360 cy         1 3RJ      -0.105400
      3 C17         -1.3870     0.4850    -2.0840 cc         1 3RJ      -0.334300
      4 C21         -3.4290    -4.2410    -4.1870 ca         1 3RJ       0.170600
      5 C22         -3.4740    -4.4240    -5.5590 ca         1 3RJ      -0.121000
      6 C28         -4.2050    -6.4810    -3.8260 ca         1 3RJ      -0.054000
      7 C01         -4.3980    -0.7840    -6.0780 ca         1 3RJ       0.513600
      8 C02         -5.2080    -0.8130    -7.2210 ca         1 3RJ      -0.198300
      9 C03         -5.4880     0.3490    -7.8780 ca         1 3RJ      -0.085000
     10 C04         -4.9840     1.5650    -7.4290 ca         1 3RJ      -0.161000
     11 C05         -4.1930     1.6290    -6.3180 ca         1 3RJ      -0.076000
     12 C06         -3.8820     0.4540    -5.6250 ca         1 3RJ      -0.355600
     13 C07         -3.0650     0.4600    -4.4670 ca         1 3RJ       0.785200
     14 C09         -1.7400     1.6220    -2.8280 cd         1 3RJ       0.579200
     15 N10         -1.1860     2.6680    -2.2610 nc         1 3RJ      -0.560800
     16 N11         -0.4660     2.2280    -1.1430 na         1 3RJ      -0.037600
     17 C12         -0.6040     0.8880    -1.0570 cd         1 3RJ      -0.057600
     18 C14          1.5370     0.0000     0.0000 cy         1 3RJ      -0.095400
     19 C16          0.0780     0.6590     1.3880 cy         1 3RJ      -0.095400
     20 N18         -2.8170    -0.6960    -3.8680 nb         1 3RJ      -0.857000
     21 C19         -3.3150    -1.8390    -4.3320 ca         1 3RJ       0.972900
     22 N20         -3.0190    -3.0130    -3.6610 nu         1 3RJ      -0.750300
     23 C23         -3.8860    -5.6440    -6.0770 ca         1 3RJ      -0.077200
     24 N24         -4.0410    -6.1430    -7.3550 na         1 3RJ      -0.268300
     25 C25         -4.4830    -7.4240    -7.2390 cc         1 3RJ       0.419700
     26 N26         -4.6090    -7.7420    -5.9840 nd         1 3RJ      -0.601100
     27 C27         -4.2560    -6.6840    -5.2080 ca         1 3RJ       0.071400
     28 C29         -3.7960    -5.2760    -3.3280 ca         1 3RJ      -0.173000
     29 N30         -4.0930    -1.8990    -5.3970 nb         1 3RJ      -0.823000
     30 H131        -0.4180    -0.9990     0.0340 hc         1 3RJ       0.087700
     31 H152         1.4100    -0.9970     1.9580 hc         1 3RJ       0.057200
     32 H151         2.1920     0.6510     1.9980 hc         1 3RJ       0.057200
     33 H171        -1.7380    -0.5250    -2.2590 ha         1 3RJ       0.197000
     34 H221        -3.0780    -3.6620    -6.2200 ha         1 3RJ       0.152000
     35 H281        -4.4880    -7.2790    -3.1490 ha         1 3RJ       0.144000
     36 H021        -5.6070    -1.7530    -7.5820 ha         1 3RJ       0.150000
     37 H031        -6.1130     0.3240    -8.7620 ha         1 3RJ       0.133000
     38 H041        -5.2220     2.4740    -7.9690 ha         1 3RJ       0.132000
     39 H051        -3.8060     2.5820    -5.9780 ha         1 3RJ       0.122000
     40 H081        -2.7340     2.5030    -4.4410 hn         1 3RJ       0.470800
     41 H111         0.0600     2.8060    -0.5180 hn         1 3RJ       0.329700
     42 H142         1.9610     0.9120    -0.4030 hc         1 3RJ       0.056700
     43 H141         1.9610    -0.9120    -0.4030 hc         1 3RJ       0.056700
     44 H161         0.1270     1.7400     1.3410 hc         1 3RJ       0.056700
     45 H162        -0.6550     0.2690     2.0840 hc         1 3RJ       0.056700
     46 H201        -2.4900    -2.9830    -2.8120 hn         1 3RJ       0.463800
     47 H241        -3.8610    -5.6520    -8.2090 hn         1 3RJ       0.302700
     48 H251        -4.6980    -8.0840    -8.0710 h5         1 3RJ       0.071800
     49 H291        -3.7580    -5.1230    -2.2560 ha         1 3RJ       0.133000
     50 N08         -2.5440     1.6380    -3.9750 nu         1 3RJ      -0.829600
@<TRIPOS>BOND
     1    10     9 ar
     2    10    11 ar
     3     9     8 ar
     4    11    12 ar
     5     8     7 ar
     6    12     7 ar
     7    12    13 ar
     8    50    13 1
     9    50    14 1
    10     7    29 ar
    11    15    14 2
    12    15    16 1
    13    13    20 ar
    14    14     3 1
    15    16    17 1
    16    29    21 ar
    17    20    21 ar
    18    21    22 1
    19     3    17 2
    20    17     1 1
    21    22     4 1
    22     1    19 1
    23     1    18 1
    24     5     4 ar
    25     5    23 ar
    26    19     2 1
    27     4    28 ar
    28    24    23 1
    29    24    25 1
    30    23    27 ar
    31    28     6 ar
    32    18     2 1
    33    25    26 2
    34    27     6 ar
    35    27    26 1
    36     1    30 1
    37     2    31 1
    38     2    32 1
    39     3    33 1
    40     5    34 1
    41     6    35 1
    42     8    36 1
    43     9    37 1
    44    10    38 1
    45    11    39 1
    46    50    40 1
    47    16    41 1
    48    18    42 1
    49    18    43 1
    50    19    44 1
    51    19    45 1
    52    22    46 1
    53    24    47 1
    54    25    48 1
    55    28    49 1
@<TRIPOS>SUBSTRUCTURE
     1 3RJ         1 TEMP              0 ****  ****    0 ROOT
