@<TRIPOS>MOLECULE
3RJ
   50    55     1     0     0
SMALL
bcc


@<TRIPOS>ATOM
      1 C13          0.0000     0.0000     0.0000 cy         1 3RJ       0.022600
      2 C15          1.4590     0.0000     1.5360 cy         1 3RJ      -0.041400
      3 C17         -1.3870     0.4850    -2.0840 cc         1 3RJ      -0.334300
      4 C21         -3.4290    -4.2410    -4.1870 ca         1 3RJ       0.004600
      5 C22         -3.4740    -4.4240    -5.5590 ca         1 3RJ      -0.082000
      6 C28         -4.2050    -6.4810    -3.8260 ca         1 3RJ      -0.021000
      7 C01         -4.3980    -0.7840    -6.0780 ca         1 3RJ       0.483600
      8 C02         -5.2080    -0.8130    -7.2210 ca         1 3RJ      -0.182300
      9 C03         -5.4880     0.3490    -7.8780 ca         1 3RJ      -0.056000
     10 C04         -4.9840     1.5650    -7.4290 ca         1 3RJ      -0.138000
     11 C05         -4.1930     1.6290    -6.3180 ca         1 3RJ      -0.049000
     12 C06         -3.8820     0.4540    -5.6250 ca         1 3RJ      -0.356600
     13 C07         -3.0650     0.4600    -4.4670 ca         1 3RJ       0.575200
     14 C09         -1.7400     1.6220    -2.8280 cc         1 3RJ       0.443200
     15 N10         -1.1860     2.6680    -2.2610 nd         1 3RJ      -0.709800
     16 N11         -0.4660     2.2280    -1.1430 na         1 3RJ       0.465400
     17 C12         -0.6040     0.8880    -1.0570 cd         1 3RJ      -0.232600
     18 C14          1.5370     0.0000     0.0000 cy         1 3RJ      -0.044900
     19 C16          0.0780     0.6590     1.3880 cy         1 3RJ      -0.044900
     20 N18         -2.8170    -0.6960    -3.8680 nb         1 3RJ      -0.753000
     21 C19         -3.3150    -1.8390    -4.3320 ca         1 3RJ       0.741900
     22 N20         -3.0190    -3.0130    -3.6610 nu         1 3RJ      -0.281300
     23 C23         -3.8860    -5.6440    -6.0770 ca         1 3RJ      -0.257200
     24 N24         -4.0410    -6.1430    -7.3550 na         1 3RJ       0.257700
     25 C25         -4.4830    -7.4240    -7.2390 cc         1 3RJ       0.235700
     26 N26         -4.6090    -7.7420    -5.9840 nd         1 3RJ      -0.518100
     27 C27         -4.2560    -6.6840    -5.2080 ca         1 3RJ       0.047400
     28 C29         -3.7960    -5.2760    -3.3280 ca         1 3RJ      -0.145000
     29 N30         -4.0930    -1.8990    -5.3970 nb         1 3RJ      -0.743000
     30 H131        -0.4180    -0.9990     0.0340 hc         1 3RJ       0.056700
     31 H152         1.4100    -0.9970     1.9580 hc         1 3RJ       0.027200
     32 H151         2.1920     0.6510     1.9980 hc         1 3RJ       0.027200
     33 H171        -1.7380    -0.5250    -2.2590 ha         1 3RJ       0.186000
     34 H221        -3.0780    -3.6620    -6.2200 ha         1 3RJ       0.129000
     35 H281        -4.4880    -7.2790    -3.1490 ha         1 3RJ       0.109000
     36 H021        -5.6070    -1.7530    -7.5820 ha         1 3RJ       0.118000
     37 H031        -6.1130     0.3240    -8.7620 ha         1 3RJ       0.100000
     38 H041        -5.2220     2.4740    -7.9690 ha         1 3RJ       0.105000
     39 H051        -3.8060     2.5820    -5.9780 ha         1 3RJ       0.100000
     40 H081        -2.7340     2.5030    -4.4410 hn         1 3RJ       0.293800
     41 H111         0.0600     2.8060    -0.5180 hn         1 3RJ       0.147700
     42 H142         1.9610     0.9120    -0.4030 hc         1 3RJ       0.026450
     43 H141         1.9610    -0.9120    -0.4030 hc         1 3RJ       0.026450
     44 H161         0.1270     1.7400     1.3410 hc         1 3RJ       0.026450
     45 H162        -0.6550     0.2690     2.0840 hc         1 3RJ       0.026450
     46 H201        -2.4900    -2.9830    -2.8120 hn         1 3RJ       0.288800
     47 H241        -3.8610    -5.6520    -8.2090 hn         1 3RJ       0.126700
     48 H251        -4.6980    -8.0840    -8.0710 h5         1 3RJ       0.024800
     49 H291        -3.7580    -5.1230    -2.2560 ha         1 3RJ       0.106000
     50 N08         -2.5440     1.6380    -3.9750 nu         1 3RJ      -0.335600
@<TRIPOS>BOND
     1     1    17 1   
     2     1    18 1   
     3     1    19 1   
     4     1    30 1   
     5     2    18 1   
     6     2    19 1   
     7     2    31 1   
     8     2    32 1   
     9     3    14 1   
    10     3    17 2   
    11     3    33 1   
    12     4     5 ar  
    13     4    22 1   
    14     4    28 ar  
    15     5    23 ar  
    16     5    34 1   
    17     6    27 ar  
    18     6    28 ar  
    19     6    35 1   
    20     7     8 ar  
    21     7    12 ar  
    22     7    29 ar  
    23     8     9 ar  
    24     8    36 1   
    25     9    10 ar  
    26     9    37 1   
    27    10    11 ar  
    28    10    38 1   
    29    11    12 ar  
    30    11    39 1   
    31    12    13 ar  
    32    13    20 ar  
    33    13    50 1   
    34    14    15 2   
    35    14    50 1   
    36    15    16 1   
    37    16    17 1   
    38    16    41 1   
    39    18    42 1   
    40    18    43 1   
    41    19    44 1   
    42    19    45 1   
    43    20    21 ar  
    44    21    22 1   
    45    21    29 ar  
    46    22    46 1   
    47    23    24 1   
    48    23    27 ar  
    49    24    25 1   
    50    24    47 1   
    51    25    26 2   
    52    25    48 1   
    53    26    27 1   
    54    28    49 1   
    55    40    50 1   
@<TRIPOS>SUBSTRUCTURE
     1 3RJ         1 TEMP              0 ****  ****    0 ROOT
