@<TRIPOS>MOLECULE
molecule
   24    24     1     0     0
SMALL
bcc


@<TRIPOS>ATOM
      1 OAA          0.0000     0.0000     0.0000 oh         1 3RK      -0.591800
      2 OAB          5.6280     0.3260     1.2100 oh         1 3RK      -0.591800
      3 OAC          1.1430    -0.8870     2.2330 oh         1 3RK      -0.594800
      4 OAD          3.7340    -0.4380     2.9160 oh         1 3RK      -0.594800
      5 CAE          1.9350     1.2390    -0.6870 c3         1 3RK       0.133800
      6 CAF          4.1890     0.1760    -0.7030 c3         1 3RK       0.133800
      7 NAG          3.2000     1.0120    -1.4210 n7         1 3RK      -0.826200
      8 CAH          1.4290     0.0000     0.0000 c3         1 3RK       0.119100
      9 CAI          4.2850     0.5150     0.7600 c3         1 3RK       0.119100
     10 CAJ          1.9470     0.0000     1.4540 c3         1 3RK       0.133600
     11 CAK          3.3410    -0.4230     1.5430 c3         1 3RK       0.133600
     12 HOAA        -0.3140    -0.6520    -0.6050 ho         1 3RK       0.409000
     13 HOAC         0.7090    -0.4020     2.9150 ho         1 3RK       0.415000
     14 HOAD         3.9930    -1.3120     3.1590 ho         1 3RK       0.415000
     15 HAE          1.1830     1.5790    -1.3890 h1         1 3RK       0.055700
     16 HAEA         2.0990     2.0080     0.0580 h1         1 3RK       0.055700
     17 HAF          3.9020    -0.8640    -0.8010 h1         1 3RK       0.055700
     18 HAFA         5.1610     0.3200    -1.1580 h1         1 3RK       0.055700
     19 HNAG         3.0010     0.6010    -2.3120 hn         1 3RK       0.359800
     20 HAH          1.7990    -0.8780    -0.5170 h1         1 3RK       0.048200
     21 HAI          3.9850     1.5440     0.9150 h1         1 3RK       0.048200
     22 HAJ          1.8610     1.0030     1.8550 h1         1 3RK       0.050700
     23 HAK          3.4280    -1.4230     1.1370 h1         1 3RK       0.050700
     24 HOAB         6.0370     1.1650     1.3410 ho         1 3RK       0.409000
@<TRIPOS>BOND
     1     1     8 1   
     2     1    12 1   
     3     9     2 1   
     4     2    24 1   
     5     3    10 1   
     6     3    13 1   
     7    11     4 1   
     8     4    14 1   
     9     8     5 1   
    10     5     7 1   
    11     5    15 1   
    12     5    16 1   
    13     7     6 1   
    14     6     9 1   
    15     6    17 1   
    16     6    18 1   
    17     7    19 1   
    18     8    10 1   
    19     8    20 1   
    20    11     9 1   
    21     9    21 1   
    22    10    11 1   
    23    10    22 1   
    24    11    23 1   
@<TRIPOS>SUBSTRUCTURE
     1 3RK         1 TEMP              0 ****  ****    0 ROOT
