@<TRIPOS>MOLECULE
molecule
   35    36     1     0     0
SMALL
bcc


@<TRIPOS>ATOM
      1 CAA          0.0000     0.0000     0.0000 c3         1 3RL       0.129700
      2 OAM          1.4280     0.0000     0.0000 os         1 3RL      -0.326400
      3 CAR          2.0460     0.0000     1.2100 ca         1 3RL       0.178100
      4 CAJ          3.4290     0.0070     1.2810 ca         1 3RL      -0.188500
      5 CAL          1.2900    -0.0010     2.3740 ca         1 3RL      -0.314000
      6 CAS          1.9140    -0.0010     3.6130 ca         1 3RL       0.178100
      7 OAN          1.1680    -0.0010     4.7490 os         1 3RL      -0.326400
      8 CAB         -0.2520    -0.0030     4.5910 c3         1 3RL       0.129700
      9 CAK          3.2960     0.0010     3.6940 ca         1 3RL      -0.188500
     10 CAQ          4.0620     0.0070     2.5260 ca         1 3RL       0.012200
     11 CAE          5.5340     0.0140     2.6070 ce         1 3RL      -0.112200
     12 CAD          6.1410     0.0140     3.8050 cf         1 3RL      -0.099200
     13 CAP          7.6110     0.0210     3.8850 ca         1 3RL      -0.068800
     14 CAH          8.2450     0.0220     5.1320 ca         1 3RL      -0.105000
     15 CAF          9.6220     0.0280     5.2020 ca         1 3RL      -0.152000
     16 CAO         10.3790     0.0330     4.0380 ca         1 3RL       0.106100
     17 OAC         11.7350     0.0450     4.1120 oh         1 3RL      -0.522100
     18 CAG          9.7540     0.0330     2.7970 ca         1 3RL      -0.152000
     19 CAI          8.3780     0.0220     2.7170 ca         1 3RL      -0.105000
     20 HAC         -0.3610    -0.8850     0.5100 h1         1 3RL       0.041200
     21 HAB         -0.3610     0.8840     0.5110 h1         1 3RL       0.041200
     22 HAA         -0.3610     0.0000    -1.0210 h1         1 3RL       0.041200
     23 HAM          4.0180     0.0110     0.3720 ha         1 3RL       0.146000
     24 HAO          0.2080    -0.0010     2.3150 ha         1 3RL       0.139000
     25 HAD         -0.5540    -0.8880     4.0440 h1         1 3RL       0.041200
     26 HAE         -0.7240    -0.0040     5.5670 h1         1 3RL       0.041200
     27 HAF         -0.5560     0.8810     4.0440 h1         1 3RL       0.041200
     28 HAN          3.7830     0.0010     4.6620 ha         1 3RL       0.146000
     29 HAH          6.1260     0.0190     1.6990 ha         1 3RL       0.137000
     30 HAG          5.5490     0.0090     4.7120 ha         1 3RL       0.139000
     31 HAK          7.6550     0.0180     6.0410 ha         1 3RL       0.136500
     32 HAI         10.1140     0.0280     6.1670 ha         1 3RL       0.141000
     33 HAP         12.0560    -0.8410     4.1300 ho         1 3RL       0.419000
     34 HAJ         10.3490     0.0360     1.8920 ha         1 3RL       0.141000
     35 HAL          7.8920     0.0220     1.7500 ha         1 3RL       0.136500
@<TRIPOS>BOND
     1    17    16 1   
     2    16    18 ar  
     3    16    15 ar  
     4    18    19 ar  
     5    15    14 ar  
     6    19    13 ar  
     7    14    13 ar  
     8    13    12 1   
     9    12    11 2   
    10    11    10 1   
    11    10     4 ar  
    12    10     9 ar  
    13     4     3 ar  
    14     9     6 ar  
    15     3     2 1   
    16     3     5 ar  
    17     2     1 1   
    18     6     5 ar  
    19     6     7 1   
    20     7     8 1   
    21     1    20 1   
    22     1    21 1   
    23     1    22 1   
    24     4    23 1   
    25     5    24 1   
    26     8    25 1   
    27     8    26 1   
    28     8    27 1   
    29     9    28 1   
    30    11    29 1   
    31    12    30 1   
    32    14    31 1   
    33    15    32 1   
    34    17    33 1   
    35    18    34 1   
    36    19    35 1   
@<TRIPOS>SUBSTRUCTURE
     1 3RL         1 TEMP              0 ****  ****    0 ROOT
