@<TRIPOS>MOLECULE
3RL
   35    36     1     0     0
SMALL
bcc


@<TRIPOS>ATOM
      1 CAA         0.1020   -0.0300   -0.1910 c3        1 3RL      0.113700
      2 OAM         1.5130   -0.1170   -0.0410 os        1 3RL     -0.326900
      3 CAR         1.9970   -0.0930    1.2530 ca        1 3RL      0.156600
      4 CAJ         3.3940   -0.1790    1.3560 ca        1 3RL     -0.183500
      5 CAL         1.1850    0.0060    2.3900 ca        1 3RL     -0.275000
      6 CAS         1.8080    0.0170    3.6430 ca        1 3RL      0.156600
      7 OAN         1.1280    0.1070    4.8430 os        1 3RL     -0.326900
      8 CAB        -0.2890    0.1830    4.7630 c3        1 3RL      0.113700
      9 CAK         3.2040   -0.0670    3.7700 ca        1 3RL     -0.183500
     10 CAQ         3.9970   -0.1600    2.6210 ca        1 3RL      0.008200
     11 CAE         5.4470   -0.2510    2.7000 ce        1 3RL     -0.117200
     12 CAD         6.1790    0.1610    3.7490 cf        1 3RL     -0.087200
     13 CAP         7.6260    0.0780    3.8370 ca        1 3RL     -0.094800
     14 CAH         8.2370    0.1810    5.1000 ca        1 3RL     -0.080500
     15 CAF         9.6160    0.1080    5.2380 ca        1 3RL     -0.186500
     16 CAO        10.4090   -0.0660    4.0910 ca        1 3RL      0.129100
     17 OAC        11.7680   -0.1310    4.2880 oh        1 3RL     -0.496100
     18 CAG         9.8210   -0.1620    2.8230 ca        1 3RL     -0.186500
     19 CAI         8.4360   -0.0890    2.7050 ca        1 3RL     -0.080500
     20 HAC        -0.4020   -0.8980    0.3010 h1        1 3RL      0.044200
     21 HAB        -0.2820    0.9330    0.2250 h1        1 3RL      0.044200
     22 HAA        -0.0440   -0.0670   -1.3000 h1        1 3RL      0.044200
     23 HAM         3.9980   -0.2570    0.4420 ha        1 3RL      0.150500
     24 HAO         0.0940    0.0720    2.3010 ha        1 3RL      0.143000
     25 HAD        -0.6050    1.0990    4.2080 h1        1 3RL      0.044200
     26 HAE        -0.7080   -0.7330    4.2780 h1        1 3RL      0.044200
     27 HAF        -0.6070    0.2420    5.8350 h1        1 3RL      0.044200
     28 HAN         3.6510   -0.0660    4.7740 ha        1 3RL      0.150500
     29 HAH         5.9300   -0.6880    1.8080 ha        1 3RL      0.129000
     30 HAG         5.6860    0.5970    4.6380 ha        1 3RL      0.130000
     31 HAK         7.6100    0.3190    5.9950 ha        1 3RL      0.136000
     32 HAI        10.0970    0.1830    6.2230 ha        1 3RL      0.143000
     33 HAP        12.1900   -0.2500    3.4240 ho        1 3RL      0.420000
     34 HAJ        10.4470   -0.2930    1.9290 ha        1 3RL      0.143000
     35 HAL         7.9790   -0.1570    1.7060 ha        1 3RL      0.136000
@<TRIPOS>BOND
     1    1    2 1   
     2    1   20 1   
     3    1   21 1   
     4    1   22 1   
     5    2    3 1   
     6    3    4 ar  
     7    3    5 ar  
     8    4   10 ar  
     9    4   23 1   
    10    5    6 ar  
    11    5   24 1   
    12    6    7 1   
    13    6    9 ar  
    14    7    8 1   
    15    8   25 1   
    16    8   26 1   
    17    8   27 1   
    18    9   10 ar  
    19    9   28 1   
    20   10   11 1   
    21   11   12 2   
    22   11   29 1   
    23   12   13 1   
    24   12   30 1   
    25   13   14 ar  
    26   13   19 ar  
    27   14   15 ar  
    28   14   31 1   
    29   15   16 ar  
    30   15   32 1   
    31   16   17 1   
    32   16   18 ar  
    33   17   33 1   
    34   18   19 ar  
    35   18   34 1   
    36   19   35 1   
@<TRIPOS>SUBSTRUCTURE
     1 3RL         1 TEMP              0 ****  ****    0 ROOT
