@<TRIPOS>MOLECULE
molecule
   41    43     1     0     0
SMALL
bcc


@<TRIPOS>ATOM
      1 C1           0.0000     0.0000     0.0000 ca         1 3RM      -0.192000
      2 N1          -4.6260    -1.2510     1.6320 n3         1 3RM      -0.723600
      3 O1          -2.0530     0.0010     1.2040 os         1 3RM      -0.309900
      4 Br1          3.9650    -0.0000     1.1940 br         1 3RM      -0.100100
      5 C2           1.3810     0.0000     0.0000 ca         1 3RM      -0.064000
      6 N2          -6.2850    -3.5290     1.2340 nh         1 3RM      -0.694300
      7 C3           2.0740     0.0000     1.1980 ca         1 3RM      -0.059900
      8 N3          -5.9760    -5.8240     0.5800 nc         1 3RM      -0.408000
      9 C4           1.3850     0.0010     2.3970 ca         1 3RM      -0.064000
     10 N4          -6.7200    -6.7750    -0.1300 nc         1 3RM      -0.359000
     11 C5           0.0030     0.0010     2.4020 ca         1 3RM      -0.192000
     12 N5          -7.8450    -4.9260    -0.0470 na         1 3RM      -0.489700
     13 C6          -0.6930     0.0010     1.2020 ca         1 3RM       0.156100
     14 N6          -8.8590    -6.8250    -1.2270 nv         1 3RM      -1.046500
     15 C7          -2.6990     0.0020     2.4790 c3         1 3RM       0.141400
     16 C8          -4.2160     0.0020     2.2800 c3         1 3RM       0.163800
     17 C9          -4.6060    -2.3690     2.5850 c3         1 3RM       0.159800
     18 C10         -4.9600    -3.6660     1.8540 c3         1 3RM       0.173800
     19 C11         -6.3050    -2.4110     0.2810 c3         1 3RM       0.173800
     20 C12         -5.9500    -1.1150     1.0120 c3         1 3RM       0.159800
     21 C13         -6.6730    -4.7140     0.6210 cd         1 3RM       0.584400
     22 C14         -7.8450    -6.2150    -0.5000 cd         1 3RM       0.630400
     23 H1          -0.5420     0.0000    -0.9380 ha         1 3RM       0.144500
     24 H2           1.9220    -0.0010    -0.9380 ha         1 3RM       0.145000
     25 H4           1.9290     0.0010     3.3340 ha         1 3RM       0.145000
     26 H5          -0.5360     0.0020     3.3420 ha         1 3RM       0.144500
     27 HN5         -8.5770    -4.2560    -0.1790 hn         1 3RM       0.297700
     28 HN6         -8.8460    -6.7950    -2.2280 hn         1 3RM       0.445300
     29 HN6A        -9.5910    -7.3150    -0.7510 hn         1 3RM       0.445300
     30 H7          -2.4080    -0.8820     3.0330 h1         1 3RM       0.039200
     31 H7A         -2.4070     0.8870     3.0320 h1         1 3RM       0.039200
     32 H8          -4.7070     0.0880     3.2420 h1         1 3RM       0.049200
     33 H8A         -4.4990     0.8410     1.6550 h1         1 3RM       0.049200
     34 H9          -5.3330    -2.1870     3.3680 h1         1 3RM       0.044450
     35 H9A         -3.6170    -2.4570     3.0170 h1         1 3RM       0.044450
     36 H10         -4.2210    -3.8590     1.0860 h1         1 3RM       0.059700
     37 H10A        -4.9760    -4.4860     2.5620 h1         1 3RM       0.059700
     38 H11         -7.2950    -2.3220    -0.1500 h1         1 3RM       0.059700
     39 H11A        -5.5790    -2.5930    -0.5030 h1         1 3RM       0.059700
     40 H12         -5.9330    -0.2950     0.3040 h1         1 3RM       0.044450
     41 H12A        -6.6890    -0.9210     1.7800 h1         1 3RM       0.044450
@<TRIPOS>BOND
     1     1     5 ar
     2     1    13 ar
     3     2    16 1
     4     2    17 1
     5     2    20 1
     6     3    13 1
     7     3    15 1
     8     4     7 1
     9     5     7 ar
    10     6    18 1
    11     6    19 1
    12     6    21 1
    13     7     9 ar
    14     8    10 1
    15     8    21 2
    16     9    11 ar
    17    10    22 2
    18    11    13 ar
    19    12    21 1
    20    12    22 1
    21    14    22 1
    22    15    16 1
    23    17    18 1
    24    19    20 1
    25     1    23 1
    26     5    24 1
    27     9    25 1
    28    11    26 1
    29    12    27 1
    30    14    28 1
    31    14    29 1
    32    15    30 1
    33    15    31 1
    34    16    32 1
    35    16    33 1
    36    17    34 1
    37    17    35 1
    38    18    36 1
    39    18    37 1
    40    19    38 1
    41    19    39 1
    42    20    40 1
    43    20    41 1
@<TRIPOS>SUBSTRUCTURE
     1 3RM         1 TEMP              0 ****  ****    0 ROOT
