@<TRIPOS>MOLECULE
3RN
   16    16     1     0     0
SMALL
bcc


@<TRIPOS>ATOM
      1 C1          0.0300   -0.0220   -0.0210 c         1 3RN      0.570300
      2 O1         -0.6980   -0.0730   -1.0100 o         1 3RN     -0.526100
      3 C2          1.5170    0.0260    0.0010 ce        1 3RN     -0.227400
      4 O2          3.6800    0.0650   -0.9430 oh        1 3RN     -0.604800
      5 C3          1.9660    0.0750    1.2740 c2        1 3RN     -0.080200
      6 C4          0.8440    0.0670    2.2680 c3        1 3RN     -0.070200
      7 C5         -0.4360    0.0030    1.4250 c3        1 3RN     -0.190400
      8 C6          2.2930    0.0160   -1.2560 c3        1 3RN      0.189600
      9 HO2         4.1450    0.0560   -1.7870 ho        1 3RN      0.405000
     10 H3          3.0120    0.1170    1.5890 ha        1 3RN      0.161000
     11 H4          0.8700    0.9910    2.8980 hc        1 3RN      0.065700
     12 H5         -1.0890    0.8930    1.5990 hc        1 3RN      0.078700
     13 H6          2.0110    0.9070   -1.8850 h1        1 3RN      0.042700
     14 H6A         2.0640   -0.9210   -1.8370 h1        1 3RN      0.042700
     15 H7          0.9270   -0.8170    2.9480 hc        1 3RN      0.065700
     16 H8         -1.0310   -0.9160    1.6490 hc        1 3RN      0.078700
@<TRIPOS>BOND
     1    1    2 2   
     2    1    3 1   
     3    1    7 1   
     4    3    5 2   
     5    3    8 1   
     6    4    8 1   
     7    4    9 1   
     8    5    6 1   
     9    5   10 1   
    10    6    7 1   
    11    6   11 1   
    12    6   15 1   
    13    7   12 1   
    14    7   16 1   
    15    8   13 1   
    16    8   14 1   
@<TRIPOS>SUBSTRUCTURE
     1 3RN         1 TEMP              0 ****  ****    0 ROOT
