@<TRIPOS>MOLECULE
molecule
   16    16     1     0     0
SMALL
bcc


@<TRIPOS>ATOM
      1 C1           0.0000     0.0000     0.0000 c          1 3RN       0.577300
      2 O1          -0.7170     0.0050    -0.9790 o          1 3RN      -0.518100
      3 C2           1.4590     0.0000     0.0000 ce         1 3RN      -0.235400
      4 O2           3.6830    -0.0030    -0.8980 oh         1 3RN      -0.616800
      5 C3           1.9610     0.0000     1.2250 c2         1 3RN      -0.077200
      6 C4           0.8550     0.0010     2.2500 c3         1 3RN      -0.075200
      7 C5          -0.4550     0.0010     1.4440 c3         1 3RN      -0.189400
      8 C6           2.2990    -0.0020    -1.2520 c3         1 3RN       0.201600
      9 HO2          4.2070    -0.0490    -1.6800 ho         1 3RN       0.408000
     10 H3           2.8900     0.5180     1.4300 ha         1 3RN       0.164000
     11 H4           0.9150    -0.8890     2.8650 hc         1 3RN       0.063200
     12 H5          -1.0310    -0.8900     1.6590 hc         1 3RN       0.078700
     13 H6           2.0750    -0.8870    -1.8360 h1         1 3RN       0.039700
     14 H6A          2.0770     0.8820    -1.8370 h1         1 3RN       0.039700
     15 H7           0.9160     0.8920     2.8640 hc         1 3RN       0.063200
     16 H8          -1.0300     0.8940     1.6580 hc         1 3RN       0.078700
@<TRIPOS>BOND
     1     1     7 1
     2     1     2 2
     3     3     1 1
     4     4     8 1
     5     4     9 1
     6     5     3 2
     7     5     6 1
     8     5    10 1
     9     6     7 1
    10     6    11 1
    11     7    12 1
    12     8     3 1
    13     8    13 1
    14     8    14 1
    15     6    15 1
    16     7    16 1
@<TRIPOS>SUBSTRUCTURE
     1 3RN         1 TEMP              0 ****  ****    0 ROOT
