@<TRIPOS>MOLECULE
molecule
   30    31     1     0     0
SMALL
bcc


@<TRIPOS>ATOM
      1 OAA          0.0000     0.0000     0.0000 o          1 3RO      -0.805800
      2 CAN          1.3470     0.0000     0.0000 c          1 3RO       0.879800
      3 OAD          1.9530     0.0000     1.0510 o          1 3RO      -0.805800
      4 CAQ          2.0870    -0.0010    -1.2840 cc         1 3RO       0.042400
      5 NAL          1.4100    -0.1260    -2.4780 ns         1 3RO      -0.427100
      6 CAS          2.0630    -0.1280    -3.6510 c          1 3RO       0.798500
      7 OAB          1.4280    -0.2410    -4.6830 o          1 3RO      -0.704500
      8 NAM          3.4020    -0.0090    -3.7170 ns         1 3RO      -0.566500
      9 CAT          4.1310     0.1180    -2.5900 c          1 3RO       0.699700
     10 OAC          5.3430     0.2260    -2.6460 o          1 3RO      -0.660500
     11 CAR          3.4400     0.1290    -1.2940 cd         1 3RO      -0.281400
     12 CAK          4.2120     0.2680    -0.0080 c3         1 3RO      -0.004200
     13 CAJ          4.6400    -1.1170     0.4830 c3         1 3RO      -0.025100
     14 CAP          5.4120    -0.9770     1.7680 ca         1 3RO      -0.033300
     15 CAI          6.7850    -0.8130     1.7370 ca         1 3RO      -0.124000
     16 CAO          7.4930    -0.6860     2.9180 ca         1 3RO       0.021400
     17 Cl1          9.2170    -0.4780     2.8790 cl         1 3RO      -0.145400
     18 CAG          6.8290    -0.7210     4.1310 ca         1 3RO      -0.145000
     19 CAF          5.4560    -0.8850     4.1620 ca         1 3RO      -0.151000
     20 CAH          4.7480    -1.0080     2.9800 ca         1 3RO      -0.095000
     21 H2           3.8580    -0.0140    -4.6080 hn         1 3RO       0.342500
     22 H4           3.5850     0.7390     0.7400 hc         1 3RO       0.076200
     23 H5           5.0910     0.8780    -0.1790 hc         1 3RO       0.076200
     24 H6           3.7610    -1.7270     0.6540 hc         1 3RO       0.053700
     25 H7           5.2660    -1.5880    -0.2660 hc         1 3RO       0.053700
     26 H8           7.3080    -0.8080     0.7890 ha         1 3RO       0.147000
     27 H9           7.3860    -0.6440     5.0570 ha         1 3RO       0.125000
     28 H10          4.9360    -0.9150     5.1110 ha         1 3RO       0.126000
     29 H11          3.7550    -1.3010     3.2990 ha         1 3RO       0.155000
     30 H12          0.4140    -0.2170    -2.4700 hn         1 3RO       0.377500
@<TRIPOS>BOND
     1    17    16 1   
     2    16    15 ar  
     3    16    18 ar  
     4    15    14 ar  
     5    18    19 ar  
     6    14    13 1   
     7    14    20 ar  
     8    13    12 1   
     9    19    20 ar  
    10    12    11 1   
    11    10     9 2   
    12    11     9 1   
    13    11     4 2   
    14     9     8 1   
    15     2     3 1   
    16     2     4 1   
    17     2     1 1   
    18     4     5 1   
    19     8     6 1   
    20     5     6 1   
    21     6     7 2   
    22     8    21 1   
    23    12    22 1   
    24    12    23 1   
    25    13    24 1   
    26    13    25 1   
    27    15    26 1   
    28    18    27 1   
    29    19    28 1   
    30    20    29 1   
    31     5    30 1   
@<TRIPOS>SUBSTRUCTURE
     1 3RO         1 TEMP              0 ****  ****    0 ROOT
