@<TRIPOS>MOLECULE
3RO
   30    31     1     0     0
SMALL
bcc


@<TRIPOS>ATOM
      1 OAA          0.0000     0.0000     0.0000 o          1 3RO      -0.853800
      2 CAN          1.3470     0.0000     0.0000 c          1 3RO       0.974800
      3 OAD          1.9530     0.0000     1.0510 o          1 3RO      -0.853800
      4 CAQ          2.0870    -0.0010    -1.2840 cc         1 3RO      -0.132600
      5 NAL          1.4100    -0.1260    -2.4780 ns         1 3RO       0.056900
      6 CAS          2.0630    -0.1280    -3.6510 c          1 3RO       0.559500
      7 OAB          1.4280    -0.2410    -4.6830 o          1 3RO      -0.759500
      8 NAM          3.4020    -0.0090    -3.7170 ns         1 3RO      -0.137500
      9 CAT          4.1310     0.1180    -2.5900 c          1 3RO       0.616700
     10 OAC          5.3430     0.2260    -2.6460 o          1 3RO      -0.700500
     11 CAR          3.4400     0.1290    -1.2940 cd         1 3RO      -0.270400
     12 CAK          4.2120     0.2680    -0.0080 c3         1 3RO       0.022800
     13 CAJ          4.6400    -1.1170     0.4830 c3         1 3RO       0.030900
     14 CAP          5.4120    -0.9770     1.7680 ca         1 3RO      -0.029300
     15 CAI          6.7850    -0.8130     1.7370 ca         1 3RO      -0.105000
     16 CAO          7.4930    -0.6860     2.9180 ca         1 3RO      -0.032600
     17 Cl1          9.2170    -0.4780     2.8790 cl         1 3RO      -0.072400
     18 CAG          6.8290    -0.7210     4.1310 ca         1 3RO      -0.127000
     19 CAF          5.4560    -0.8850     4.1620 ca         1 3RO      -0.129000
     20 CAH          4.7480    -1.0080     2.9800 ca         1 3RO      -0.065000
     21 H2           3.8580    -0.0140    -4.6080 hn         1 3RO       0.188500
     22 H4           3.5850     0.7390     0.7400 hc         1 3RO       0.055700
     23 H5           5.0910     0.8780    -0.1790 hc         1 3RO       0.055700
     24 H6           3.7610    -1.7270     0.6540 hc         1 3RO       0.023200
     25 H7           5.2660    -1.5880    -0.2660 hc         1 3RO       0.023200
     26 H8           7.3080    -0.8080     0.7890 ha         1 3RO       0.121000
     27 H9           7.3860    -0.6440     5.0570 ha         1 3RO       0.101000
     28 H10          4.9360    -0.9150     5.1110 ha         1 3RO       0.099000
     29 H11          3.7550    -1.3010     3.2990 ha         1 3RO       0.128000
     30 H12          0.4140    -0.2170    -2.4700 hn         1 3RO       0.212500
@<TRIPOS>BOND
     1     1     2 1   
     2     2     3 1   
     3     2     4 1   
     4     4     5 1   
     5     4    11 2   
     6     5     6 1   
     7     5    30 1   
     8     6     7 2   
     9     6     8 1   
    10     8     9 1   
    11     8    21 1   
    12     9    10 2   
    13     9    11 1   
    14    11    12 1   
    15    12    13 1   
    16    12    22 1   
    17    12    23 1   
    18    13    14 1   
    19    13    24 1   
    20    13    25 1   
    21    14    15 ar  
    22    14    20 ar  
    23    15    16 ar  
    24    15    26 1   
    25    16    17 1   
    26    16    18 ar  
    27    18    19 ar  
    28    18    27 1   
    29    19    20 ar  
    30    19    28 1   
    31    20    29 1   
@<TRIPOS>SUBSTRUCTURE
     1 3RO         1 TEMP              0 ****  ****    0 ROOT
