@<TRIPOS>MOLECULE
molecule
   29    30     1     0     0
SMALL
bcc


@<TRIPOS>ATOM
      1 N1           0.0000     0.0000     0.0000 nb         1 3RP      -0.749000
      2 N3          -2.0650    -0.0000     1.0930 nv         1 3RP      -1.055500
      3 C4           1.3240     0.0000     0.0000 ca         1 3RP       0.474600
      4 C5           2.0850    -0.0010    -1.3010 c3         1 3RP      -0.146400
      5 C6           1.9340    -0.0000     3.7060 cp         1 3RP      -0.102500
      6 C7           1.5270     0.8870     4.7030 ca         1 3RP       0.031400
      7 C8           2.1580     0.8810     5.9310 ca         1 3RP      -0.089000
      8 C10          3.6040    -0.8890     5.1890 ca         1 3RP       0.145100
      9 C11          2.9780    -0.8900     3.9550 ca         1 3RP      -0.190000
     10 C3           2.0020     0.0000     1.2060 ca         1 3RP      -0.378600
     11 C9           3.1930    -0.0020     6.1770 ca         1 3RP       0.012400
     12 C2           1.2550     0.0000     2.3880 cp         1 3RP       0.520800
     13 C1          -0.6820     0.0010     1.1360 ca         1 3RP       0.937900
     14 C12          4.9910    -2.6400     4.3740 c3         1 3RP       0.125700
     15 N2          -0.0730     0.0010     2.3120 nb         1 3RP      -0.733000
     16 O1           4.6210    -1.7570     5.4350 os         1 3RP      -0.311900
     17 Cl1          0.2290     1.9990     4.3980 cl         1 3RP      -0.075400
     18 Cl2          3.9820    -0.0050     7.7240 cl         1 3RP      -0.079400
     19 HN3         -2.5700    -0.8510     1.2460 hn         1 3RP       0.445800
     20 HN3A        -2.5610     0.8550     0.9360 hn         1 3RP       0.445800
     21 H5           2.7450     0.8580    -1.3340 hc         1 3RP       0.057367
     22 H5A          2.6700    -0.9090    -1.3770 hc         1 3RP       0.057367
     23 H5B          1.3870     0.0480    -2.1280 hc         1 3RP       0.057367
     24 H8           1.8410     1.5700     6.7050 ha         1 3RP       0.164000
     25 H11          3.2980    -1.5810     3.1850 ha         1 3RP       0.151000
     26 H3           3.0850     0.0000     1.2340 ha         1 3RP       0.147000
     27 H12          4.1400    -3.2510     4.1000 h1         1 3RP       0.045033
     28 H12A         5.3110    -2.0610     3.5170 h1         1 3RP       0.045033
     29 H12B         5.8030    -3.2780     4.7020 h1         1 3RP       0.045033
@<TRIPOS>BOND
     1     1    13 ar  
     2     1     3 ar  
     3     2    13 1   
     4     2    19 1   
     5     2    20 1   
     6     4     3 1   
     7     3    10 ar  
     8     4    21 1   
     9     4    22 1   
    10     4    23 1   
    11     6     5 ar  
    12    12     5 1   
    13     5     9 ar  
    14    17     6 1   
    15     6     7 ar  
    16     7    11 ar  
    17     7    24 1   
    18    11     8 ar  
    19     9     8 ar  
    20     8    16 1   
    21     9    25 1   
    22    10    12 ar  
    23    10    26 1   
    24    11    18 1   
    25    15    12 ar  
    26    13    15 ar  
    27    16    14 1   
    28    14    27 1   
    29    14    28 1   
    30    14    29 1   
@<TRIPOS>SUBSTRUCTURE
     1 3RP         1 TEMP              0 ****  ****    0 ROOT
