@<TRIPOS>MOLECULE
molecule
   32    34     1     0     0
SMALL
bcc


@<TRIPOS>ATOM
      1 N1           0.0000     0.0000     0.0000 nb         1 3RQ      -0.751000
      2 N3           2.2840     0.0000     0.9830 na         1 3RQ      -0.272100
      3 C4           1.5960     1.0000    -4.6730 ca         1 3RQ       0.159400
      4 C5           2.2110     0.9980    -5.9110 ca         1 3RQ      -0.139000
      5 C6           3.1270     0.0120    -6.2300 ca         1 3RQ      -0.019600
      6 C8           1.2420     0.0030    -2.4160 cp         1 3RQ       0.566800
      7 C13          3.4370     0.0030    -0.9230 cc         1 3RQ      -0.040900
      8 C15          4.5200     0.0040    -1.8580 cg         1 3RQ       0.249500
      9 C2           2.8230    -0.9890    -4.0670 ca         1 3RQ      -0.103000
     10 C14          3.5310     0.0020     0.4380 cd         1 3RQ      -0.023100
     11 C12          2.0000     0.0020    -1.2380 ca         1 3RQ      -0.317400
     12 C3           1.8990     0.0050    -3.7430 cp         1 3RQ      -0.130500
     13 C1           3.4330    -0.9820    -5.3090 ca         1 3RQ       0.015100
     14 C11          1.3300     0.0000     0.0000 ca         1 3RQ       0.485800
     15 C9          -0.6740     0.0000    -1.1310 ca         1 3RQ       0.662300
     16 N4           5.3690     0.0160    -2.6130 n1         1 3RQ      -0.388800
     17 N2          -0.0870     0.0020    -2.3110 nb         1 3RQ      -0.733000
     18 O1           4.3340    -1.9500    -5.6280 os         1 3RQ      -0.226900
     19 Cl1          4.0140    -0.2780    -7.3350 cl         1 3RQ       0.093600
     20 H5           2.2180     1.9810    -6.3670 ha         1 3RQ       0.168000
     21 H7           6.1000    -2.4640    -5.0300 h1         1 3RQ       0.030033
     22 H7A          5.8010    -1.0900    -4.3210 h1         1 3RQ       0.030033
     23 H7B          4.9850    -2.7290    -4.1920 h1         1 3RQ       0.030033
     24 H10         -2.5470    -1.0560    -1.6520 hc         1 3RQ       0.074700
     25 H10A        -2.3690     0.8530    -1.8210 hc         1 3RQ       0.074700
     26 H10B        -2.4630     0.2680    -0.2600 hc         1 3RQ       0.074700
     27 H2           3.2130    -1.7930    -3.4560 ha         1 3RQ       0.165000
     28 H14          4.3720     0.2440     1.0770 h4         1 3RQ       0.182000
     29 HN3          1.9720     0.1080     1.9280 hn         1 3RQ       0.319700
     30 C10         -2.2840    -0.0760    -1.2710 c3         1 3RQ      -0.089400
     31 Cl2          0.6570     2.8110    -4.2350 cl         1 3RQ      -0.219400
     32 C7           5.2230    -1.8680    -4.8050 c3         1 3RQ       0.070700
@<TRIPOS>BOND
     1    14     1 ar
     2     1    15 ar
     3     2    10 1
     4     2    14 1
     5    31     3 1
     6     3    12 ar
     7     3     4 ar
     8     4     5 ar
     9     4    20 1
    10     5    13 ar
    11     5    19 1
    12    18    32 1
    13    32    21 1
    14    32    22 1
    15    32    23 1
    16    11     6 ar
    17     6    17 ar
    18     6    12 1
    19    15    30 1
    20    30    24 1
    21    30    25 1
    22    30    26 1
    23    10     7 2
    24     7    11 1
    25     7     8 1
    26     8    16 3
    27    12     9 ar
    28     9    13 ar
    29     9    27 1
    30    10    28 1
    31    14    11 ar
    32    13    18 1
    33    15    17 ar
    34     2    29 1
@<TRIPOS>SUBSTRUCTURE
     1 3RQ         1 TEMP              0 ****  ****    0 ROOT
