@<TRIPOS>MOLECULE
3RQ
   32    34     1     0     0
SMALL
bcc


@<TRIPOS>ATOM
      1 N1          0.0150   -0.0570    0.1090 nb        1 3RQ     -0.696000
      2 N3          2.2140    0.5380    1.1110 na        1 3RQ     -0.275100
      3 C4          2.2260    1.1170   -4.4400 ca        1 3RQ      0.042400
      4 C5          2.8730    1.0830   -5.6790 ca        1 3RQ     -0.115000
      5 C6          3.3690   -0.1260   -6.1770 ca        1 3RQ      0.019400
      6 C8          1.4030   -0.0400   -2.3680 cp        1 3RQ      0.548800
      7 C13         3.4720    0.5930   -0.8050 cc        1 3RQ     -0.014900
      8 C15         4.5870    0.7440   -1.6410 cg        1 3RQ      0.222500
      9 C2          2.5680   -1.2630   -4.1810 ca        1 3RQ     -0.096000
     10 C14         3.4840    0.7560    0.5880 cd        1 3RQ     -0.050100
     11 C12         2.1220    0.2530   -1.1850 ca        1 3RQ     -0.277400
     12 C3          2.0840   -0.0530   -3.6800 cp        1 3RQ     -0.137500
     13 C1          3.2140   -1.3020   -5.4230 ca        1 3RQ      0.098100
     14 C11         1.3480    0.2270    0.0520 ca        1 3RQ      0.445800
     15 C9         -0.5500   -0.3220   -1.1000 ca        1 3RQ      0.665300
     16 N4          5.5200    0.8740   -2.3260 n1        1 3RQ     -0.357800
     17 N2          0.0900   -0.3270   -2.3260 nb        1 3RQ     -0.698000
     18 O1          3.7780   -2.5050   -5.8220 os        1 3RQ     -0.331900
     19 CL1         4.1490   -0.1280   -7.6830 cl        1 3RQ     -0.065400
     20 H5          2.9920    2.0100   -6.2640 ha        1 3RQ      0.166000
     21 H7          1.9940   -3.5120   -6.2630 h1        1 3RQ      0.045367
     22 H7A         3.5760   -4.1540   -6.9530 h1        1 3RQ      0.045367
     23 H7B         2.7950   -2.6510   -7.6720 h1        1 3RQ      0.045367
     24 H10        -2.1790   -1.6550   -1.5720 hc        1 3RQ      0.064367
     25 H10A       -2.4590   -0.6360   -0.0930 hc        1 3RQ      0.064367
     26 H10B       -2.5600    0.1140   -1.7460 hc        1 3RQ      0.064367
     27 H2          2.4560   -2.1940   -3.6030 ha        1 3RQ      0.161000
     28 H14         4.3220    1.0160    1.2410 h4        1 3RQ      0.186000
     29 HN3         1.9540    0.5960    2.0620 hn        1 3RQ      0.320700
     30 C10        -2.0260   -0.6440   -1.1220 c3        1 3RQ     -0.134400
     31 CL2         1.6190    2.6000   -3.8780 cl        1 3RQ     -0.070400
     32 C7          2.9670   -3.2410   -6.7400 c3        1 3RQ      0.114700
@<TRIPOS>BOND
     1    1   14 ar  
     2    1   15 ar  
     3    2   10 1   
     4    2   14 1   
     5    2   29 1   
     6    3    4 ar  
     7    3   12 ar  
     8    3   31 1   
     9    4    5 ar  
    10    4   20 1   
    11    5   13 ar  
    12    5   19 1   
    13    6   11 ar  
    14    6   12 1   
    15    6   17 ar  
    16    7    8 1   
    17    7   10 2   
    18    7   11 1   
    19    8   16 3   
    20    9   12 ar  
    21    9   13 ar  
    22    9   27 1   
    23   10   28 1   
    24   11   14 ar  
    25   13   18 1   
    26   15   17 ar  
    27   15   30 1   
    28   18   32 1   
    29   21   32 1   
    30   22   32 1   
    31   23   32 1   
    32   24   30 1   
    33   25   30 1   
    34   26   30 1   
@<TRIPOS>SUBSTRUCTURE
     1 3RQ         1 TEMP              0 ****  ****    0 ROOT
