@<TRIPOS>MOLECULE
3RR
   35    37     1     0     0
SMALL
bcc


@<TRIPOS>ATOM
      1 N1           0.0000     0.0000     0.0000 nb         1 3RR      -0.614000
      2 N3           2.2840     0.0000     0.9840 na         1 3RR       0.295900
      3 C4           2.0010    -0.0020    -1.2360 ca         1 3RR      -0.311400
      4 C5           3.4360    -0.0020    -0.9210 cc         1 3RR       0.010100
      5 C6           3.5300    -0.0020     0.4400 cd         1 3RR      -0.211300
      6 C8           1.9010    -0.0050    -3.7420 cp         1 3RR      -0.111500
      7 C10          2.2070     0.9780    -5.9150 ca         1 3RR      -0.064000
      8 C13          2.8240    -1.0000    -4.0640 ca         1 3RR      -0.189000
      9 C15          4.5210    -0.0020    -1.8550 cg         1 3RR       0.237500
     10 C12          3.4310    -0.9990    -5.3070 ca         1 3RR       0.168100
     11 C9           1.5950     0.9860    -4.6770 ca         1 3RR      -0.040600
     12 C11          3.1220    -0.0100    -6.2320 ca         1 3RR      -0.061600
     13 C2           1.2430    -0.0030    -2.4150 cp         1 3RR       0.528800
     14 C3           1.3300     0.0000     0.0000 ca         1 3RR       0.251800
     15 C1          -0.6730    -0.0020    -1.1310 ca         1 3RR       0.610300
     16 C16          4.8180    -0.0020     1.2210 c3         1 3RR       0.086100
     17 C14          4.6020    -2.9540    -4.6250 c3         1 3RR       0.227700
     18 N4           5.3940    -0.0090    -2.5820 n1         1 3RR      -0.398800
     19 N2          -0.0860    -0.0030    -2.3110 nb         1 3RR      -0.614000
     20 O1           4.3320    -1.9680    -5.6230 os         1 3RR      -0.290900
     21 Cl2          0.4470     2.2270    -4.2830 cl         1 3RR      -0.005400
     22 Cl1          3.8860    -0.0130    -7.7910 cl         1 3RR       0.003600
     23 H7          -2.5790     0.0660    -2.0800 hc         1 3RR       0.019700
     24 H7A         -2.5240    -0.9170    -0.6100 hc         1 3RR       0.019700
     25 H7B         -2.5190     0.8480    -0.4940 hc         1 3RR       0.019700
     26 H10          1.9700     1.7470    -6.6410 ha         1 3RR       0.127000
     27 H13          3.0630    -1.7700    -3.3410 ha         1 3RR       0.141000
     28 H16          4.8410     0.8570     1.8810 hc         1 3RR       0.019367
     29 H16A         4.8850    -0.9100     1.8080 hc         1 3RR       0.019367
     30 H16B         5.6560     0.0470     0.5360 hc         1 3RR       0.019367
     31 H14          4.3060    -2.5760    -3.6540 h1         1 3RR       0.004700
     32 H14A         5.6620    -3.1780    -4.6170 h1         1 3RR       0.004700
     33 H14B         4.0450    -3.8560    -4.8480 h1         1 3RR       0.004700
     34 HN3          2.0690     0.0000     1.9620 hn         1 3RR       0.125700
     35 C7          -2.1800    -0.0010    -1.0750 c3         1 3RR      -0.031400
@<TRIPOS>BOND
     1     1    14 ar  
     2     1    15 ar  
     3     2     5 1   
     4     2    14 1   
     5     2    34 1   
     6     3     4 1   
     7     3    13 ar  
     8     3    14 ar  
     9     4     5 2   
    10     4     9 1   
    11     5    16 1   
    12     6     8 ar  
    13     6    11 ar  
    14     6    13 1   
    15     7    11 ar  
    16     7    12 ar  
    17     7    26 1   
    18     8    10 ar  
    19     8    27 1   
    20     9    18 3   
    21    10    12 ar  
    22    10    20 1   
    23    11    21 1   
    24    12    22 1   
    25    13    19 ar  
    26    15    19 ar  
    27    15    35 1   
    28    16    28 1   
    29    16    29 1   
    30    16    30 1   
    31    17    20 1   
    32    17    31 1   
    33    17    32 1   
    34    17    33 1   
    35    23    35 1   
    36    24    35 1   
    37    25    35 1   
@<TRIPOS>SUBSTRUCTURE
     1 3RR         1 TEMP              0 ****  ****    0 ROOT
