@<TRIPOS>MOLECULE
3RS
   65    68     1     0     0
SMALL
bcc


@<TRIPOS>ATOM
      1 C26          0.0000     0.0000     0.0000 c3         1 3RS      -0.068400
      2 C27          1.5300     0.0000     0.0000 c3         1 3RS       0.165800
      3 C31          2.0400    -1.2500    -0.7210 c3         1 3RS      -0.019600
      4 C32          2.0410     1.2490    -0.7220 c3         1 3RS      -0.019600
      5 O28          2.0060     0.0000     1.3470 os         1 3RS      -0.400600
      6 C29          1.6070    -1.1420     2.1070 c3         1 3RS       0.209400
      7 C30          0.0780    -1.1880     2.1920 c3         1 3RS      -0.084400
      8 C25         -0.5030    -1.2210     0.7760 c3         1 3RS       0.014700
      9 N15         -1.9660    -1.1890     0.8460 ns         1 3RS      -0.192900
     10 C14         -2.6580    -2.3330     1.0170 c          1 3RS       0.577100
     11 O16         -2.0690    -3.3890     1.1140 o          1 3RS      -0.651100
     12 C13         -4.1620    -2.3010     1.0890 c3         1 3RS      -0.119700
     13 C17         -4.5980    -1.4250     2.2660 c3         1 3RS       0.000900
     14 C12         -4.6950    -3.7210     1.2850 c3         1 3RS       0.053900
     15 C9          -6.2000    -3.7060     1.2210 ca         1 3RS      -0.211600
     16 C8          -6.8510    -3.6910    -0.0210 ca         1 3RS       0.505200
     17 N7          -8.1650    -3.6790    -0.1120 nb         1 3RS      -0.584000
     18 N11         -6.0920    -3.6870    -1.1820 nv         1 3RS      -0.651500
     19 C10         -6.9330    -3.7160     2.3690 ca         1 3RS      -0.057000
     20 C5          -8.3400    -3.7010     2.2660 ca         1 3RS      -0.150300
     21 C6          -9.1500    -3.7100     3.4090 ca         1 3RS      -0.077000
     22 C4          -8.9360    -3.6800     0.9810 ca         1 3RS       0.378600
     23 C3         -10.3390    -3.6670     0.8720 ca         1 3RS      -0.144300
     24 C2         -11.1100    -3.6690     1.9900 ca         1 3RS      -0.094000
     25 C1         -10.5270    -3.6960     3.2670 cp         1 3RS      -0.027000
     26 C18        -11.3920    -3.7050     4.4720 cp         1 3RS      -0.040000
     27 C19        -11.1750    -4.6410     5.4820 ca         1 3RS      -0.087000
     28 C20        -11.9830    -4.6440     6.6010 ca         1 3RS      -0.108000
     29 C21        -13.0070    -3.7220     6.7200 ca         1 3RS      -0.095000
     30 C22        -13.2280    -2.7920     5.7200 ca         1 3RS      -0.102000
     31 C23        -12.4220    -2.7750     4.6000 ca         1 3RS      -0.074300
     32 C24        -12.6590    -1.7570     3.5150 c3         1 3RS       0.049200
     33 H26         -0.3610     0.9040     0.4760 hc         1 3RS       0.027700
     34 H26A        -0.3610    -0.0470    -1.0200 hc         1 3RS       0.027700
     35 H31          3.1240    -1.2480    -0.7250 hc         1 3RS       0.015033
     36 H31A         1.6760    -1.2520    -1.7410 hc         1 3RS       0.015033
     37 H31B         1.6830    -2.1340    -0.2080 hc         1 3RS       0.015033
     38 H32          1.7220     2.1330    -0.1830 hc         1 3RS       0.015033
     39 H32A         1.6390     1.2740    -1.7270 hc         1 3RS       0.015033
     40 H32B         3.1230     1.2240    -0.7660 hc         1 3RS       0.015033
     41 H29          1.9670    -2.0410     1.6220 h1         1 3RS       0.015200
     42 H29A         2.0210    -1.0720     3.1060 h1         1 3RS       0.015200
     43 H30         -0.2270    -2.0780     2.7290 hc         1 3RS       0.032700
     44 H30A        -0.2810    -0.3060     2.7090 hc         1 3RS       0.032700
     45 H25         -0.1800    -2.1250     0.2750 h1         1 3RS       0.063700
     46 HN15        -2.4530    -0.3230     0.7310 hn         1 3RS       0.176500
     47 H13         -4.5590    -1.8910     0.1680 hc         1 3RS       0.042700
     48 H17         -5.6730    -1.2940     2.2400 hc         1 3RS       0.010033
     49 H17A        -4.1140    -0.4590     2.1960 hc         1 3RS       0.010033
     50 H17B        -4.3160    -1.9040     3.1960 hc         1 3RS       0.010033
     51 H12         -4.3070    -4.3640     0.5040 hc         1 3RS       0.036200
     52 H12A        -4.3790    -4.0960     2.2510 hc         1 3RS       0.036200
     53 HN11        -6.0170    -2.8520    -1.7280 hn         1 3RS       0.277300
     54 HN1A        -5.6700    -4.5350    -1.5060 hn         1 3RS       0.277300
     55 H10         -6.4610    -3.9700     3.3100 ha         1 3RS       0.117000
     56 H6          -8.7030    -3.7300     4.3950 ha         1 3RS       0.114000
     57 H3         -10.8050    -3.6470    -0.1060 ha         1 3RS       0.117000
     58 H2         -12.1890    -3.6590     1.8950 ha         1 3RS       0.116000
     59 H19        -10.3740    -5.3630     5.3900 ha         1 3RS       0.108000
     60 H20        -11.8150    -5.3710     7.3870 ha         1 3RS       0.103000
     61 H21        -13.6410    -3.7300     7.5990 ha         1 3RS       0.102000
     62 H22        -14.0300    -2.0710     5.8200 ha         1 3RS       0.107000
     63 H24        -13.2640    -2.1980     2.7320 hc         1 3RS       0.013367
     64 H24A       -13.1740    -0.8990     3.9300 hc         1 3RS       0.013367
     65 H24B       -11.7080    -1.4410     3.1020 hc         1 3RS       0.013367
@<TRIPOS>BOND
     1     1     2 1   
     2     1     8 1   
     3     1    33 1   
     4     1    34 1   
     5     2     3 1   
     6     2     4 1   
     7     2     5 1   
     8     3    35 1   
     9     3    36 1   
    10     3    37 1   
    11     4    38 1   
    12     4    39 1   
    13     4    40 1   
    14     5     6 1   
    15     6     7 1   
    16     6    41 1   
    17     6    42 1   
    18     7     8 1   
    19     7    43 1   
    20     7    44 1   
    21     8     9 1   
    22     8    45 1   
    23     9    10 1   
    24     9    46 1   
    25    10    11 2   
    26    10    12 1   
    27    12    13 1   
    28    12    14 1   
    29    12    47 1   
    30    13    48 1   
    31    13    49 1   
    32    13    50 1   
    33    14    15 1   
    34    14    51 1   
    35    14    52 1   
    36    15    16 ar  
    37    15    19 ar  
    38    16    17 ar  
    39    16    18 1   
    40    17    22 ar  
    41    18    53 1   
    42    18    54 1   
    43    19    20 ar  
    44    19    55 1   
    45    20    21 ar  
    46    20    22 ar  
    47    21    25 ar  
    48    21    56 1   
    49    22    23 ar  
    50    23    24 ar  
    51    23    57 1   
    52    24    25 ar  
    53    24    58 1   
    54    25    26 1   
    55    26    27 ar  
    56    26    31 ar  
    57    27    28 ar  
    58    27    59 1   
    59    28    29 ar  
    60    28    60 1   
    61    29    30 ar  
    62    29    61 1   
    63    30    31 ar  
    64    30    62 1   
    65    31    32 1   
    66    32    63 1   
    67    32    64 1   
    68    32    65 1   
@<TRIPOS>SUBSTRUCTURE
     1 3RS         1 TEMP              0 ****  ****    0 ROOT
