@<TRIPOS>MOLECULE
molecule
   62    67     1     0     0
SMALL
bcc


@<TRIPOS>ATOM
      1 C1           0.0000     0.0000     0.0000 c3         1 3RT      -0.034100
      2 C2           3.5430     0.0000     1.2080 cc         1 3RT       0.044700
      3 C3           1.5070    -0.0000     0.0020 cc         1 3RT       0.033400
      4 C4           2.1790     0.0000    -1.1710 cd         1 3RT      -0.198000
      5 C5           3.5810    -0.0060    -1.1810 cd         1 3RT      -0.081000
      6 C6           4.2620     0.0000     0.0000 cc         1 3RT      -0.135000
      7 N1           2.1780     0.0010     1.1840 na         1 3RT       0.182000
      8 N2           3.9210     0.0070     2.4830 nd         1 3RT      -0.496300
      9 N3           1.7600     0.0020     2.5230 nc         1 3RT      -0.664100
     10 O1          11.7830    -1.3030    10.5860 os         1 3RT      -0.423600
     11 C7           2.8470     0.0050     3.2670 cd         1 3RT       0.802200
     12 C8           4.0840    -0.1040     5.3420 ca         1 3RT       0.213600
     13 C9           4.2370     0.4990     6.5900 ca         1 3RT      -0.213000
     14 C10          5.4150     0.4000     7.2690 ca         1 3RT      -0.030000
     15 C11          6.4830    -0.3100     6.7110 ca         1 3RT      -0.295900
     16 C12          6.3370    -0.9220     5.4520 ca         1 3RT       0.024800
     17 C13          5.1250    -0.8170     4.7750 ca         1 3RT      -0.187000
     18 C14          7.8470    -0.6040     7.1550 cd         1 3RT       0.626800
     19 C15          9.8130    -0.5670     8.6650 c3         1 3RT       0.251500
     20 O2          -2.1190    -3.3580     1.4810 os         1 3RT      -0.421600
     21 C21         -0.1180    -2.0030     1.4940 c3         1 3RT      -0.113900
     22 C22         -0.6990    -3.4110     1.6400 c3         1 3RT       0.137900
     23 C23         -2.5440    -2.8820     0.2030 c3         1 3RT       0.137900
     24 C24         -2.0370    -1.4510    -0.0020 c3         1 3RT      -0.113900
     25 C20         -0.5100    -1.4370     0.1250 c3         1 3RT      -0.067700
     26 N4           2.8690     0.0060     4.6610 nu         1 3RT      -0.709600
     27 N6           7.5300    -1.5360     5.1680 na         1 3RT      -0.052100
     28 N5           8.4200    -1.3210     6.2240 nc         1 3RT      -0.593100
     29 N7           8.4300    -0.1940     8.3570 nu         1 3RT      -0.872200
     30 C16         10.4120     0.4500     9.6410 c3         1 3RT      -0.135400
     31 C17         11.8280     0.0080    10.0200 c3         1 3RT       0.139900
     32 C18         11.2750    -2.3030     9.7010 c3         1 3RT       0.139900
     33 C19          9.8370    -1.9550     9.3110 c3         1 3RT      -0.135400
     34 H1          -0.3600     0.4320    -0.9260 hc         1 3RT       0.068700
     35 H2          -0.3620     0.5860     0.8360 hc         1 3RT       0.068700
     36 H3           1.6320    -0.0040    -2.1060 ha         1 3RT       0.156000
     37 H4           4.1200    -0.0060    -2.1210 ha         1 3RT       0.146000
     38 H5           5.3460    -0.0050     0.0070 ha         1 3RT       0.163000
     39 H6           3.4130     1.0540     7.0230 ha         1 3RT       0.131000
     40 H7           5.5250     0.8720     8.2380 ha         1 3RT       0.126000
     41 H8           5.0010    -1.2830     3.8050 ha         1 3RT       0.165000
     42 H9          10.4000    -0.5820     7.7550 h1         1 3RT       0.072700
     43 H10          0.9620    -2.0480     1.5700 hc         1 3RT       0.057950
     44 H11         -0.5150    -1.3650     2.2750 hc         1 3RT       0.057950
     45 H12         -0.2760    -4.0560     0.8800 h1         1 3RT       0.046200
     46 H13         -0.4620    -3.7980     2.6240 h1         1 3RT       0.046200
     47 H14         -3.6270    -2.8900     0.1580 h1         1 3RT       0.046200
     48 H15         -2.1400    -3.5210    -0.5720 h1         1 3RT       0.046200
     49 H16         -2.4680    -0.8040     0.7510 hc         1 3RT       0.057950
     50 H17         -2.3210    -1.1060    -0.9890 hc         1 3RT       0.057950
     51 H18         -0.0770    -2.0500    -0.6570 hc         1 3RT       0.051700
     52 H19          2.0130     0.0810     5.1740 hn         1 3RT       0.468800
     53 H20          7.7320    -2.0560     4.3370 hn         1 3RT       0.331700
     54 H21          7.9090     0.3700     8.9990 hn         1 3RT       0.447800
     55 H22          9.7990     0.4980    10.5330 hc         1 3RT       0.057700
     56 H23         10.4520     1.4240     9.1690 hc         1 3RT       0.057700
     57 H24         12.2390     0.7000    10.7450 h1         1 3RT       0.048450
     58 H25         12.4500    -0.0040     9.1330 h1         1 3RT       0.048450
     59 H26         11.2900    -3.2650    10.1980 h1         1 3RT       0.048450
     60 H27         11.8900    -2.3420     8.8100 h1         1 3RT       0.048450
     61 H28          9.4670    -2.6880     8.6040 hc         1 3RT       0.057700
     62 H29          9.2130    -1.9520    10.1960 hc         1 3RT       0.057700
@<TRIPOS>BOND
     1    24    23 1   
     2    24    25 1   
     3     1    25 1   
     4     1     3 1   
     5    23    20 1   
     6    20    22 1   
     7    25    21 1   
     8    28    27 1   
     9    28    18 2   
    10    21    22 1   
    11    31    30 1   
    12    31    10 1   
    13    27    16 1   
    14     3     4 2   
    15     3     7 1   
    16    19    30 1   
    17    19    29 1   
    18    19    33 1   
    19     4     5 1   
    20    18    29 1   
    21    18    15 1   
    22    32    10 1   
    23    32    33 1   
    24    16    15 ar  
    25    16    17 ar  
    26     7     9 1   
    27     7     2 1   
    28     5     6 2   
    29    15    14 ar  
    30     9    11 2   
    31    17    12 ar  
    32    14    13 ar  
    33     2     6 1   
    34     2     8 2   
    35    12    13 ar  
    36    12    26 1   
    37    11     8 1   
    38    11    26 1   
    39     1    34 1   
    40     1    35 1   
    41     4    36 1   
    42     5    37 1   
    43     6    38 1   
    44    13    39 1   
    45    14    40 1   
    46    17    41 1   
    47    19    42 1   
    48    21    43 1   
    49    21    44 1   
    50    22    45 1   
    51    22    46 1   
    52    23    47 1   
    53    23    48 1   
    54    24    49 1   
    55    24    50 1   
    56    25    51 1   
    57    26    52 1   
    58    27    53 1   
    59    29    54 1   
    60    30    55 1   
    61    30    56 1   
    62    31    57 1   
    63    31    58 1   
    64    32    59 1   
    65    32    60 1   
    66    33    61 1   
    67    33    62 1   
@<TRIPOS>SUBSTRUCTURE
     1 3RT         1 TEMP              0 ****  ****    0 ROOT
