@<TRIPOS>MOLECULE
molecule
   48    50     1     0     0
SMALL
bcc


@<TRIPOS>ATOM
      1 C4           0.0000     0.0000     0.0000 ca         1 3RU      -0.108000
      2 C5           1.4040     0.0000     0.0000 ca         1 3RU      -0.162300
      3 C6           2.1030     0.0000     1.2320 ca         1 3RU       0.429600
      4 C8           4.1300    -0.0020     0.1170 ca         1 3RU       0.691200
      5 C10          2.1360    -0.0020    -1.2050 ca         1 3RU      -0.077000
      6 C13          4.8050     1.4170    -2.6900 c3         1 3RU      -0.152400
      7 C17          6.9630     2.5660    -5.6360 c3         1 3RU       0.115000
      8 C20          8.8730     5.3860    -7.4300 c3         1 3RU      -0.079400
      9 C21          7.6720     6.2870    -7.7280 c3         1 3RU      -0.080400
     10 C22          6.7370     6.3070    -6.5180 c3         1 3RU      -0.079400
     11 C19          8.3860     3.9660    -7.1370 c3         1 3RU      -0.073900
     12 C23          6.2500     4.8870    -6.2260 c3         1 3RU      -0.073900
     13 C18          7.4500     3.9860    -5.9270 c3         1 3RU      -0.089700
     14 N15          6.1630     2.5660    -4.4080 ns         1 3RU      -0.588900
     15 C14          5.6270     1.4170    -3.9530 c          1 3RU       0.654100
     16 O16          5.8050     0.3820    -4.5600 o          1 3RU      -0.612100
     17 C9           3.4960    -0.0030    -1.1340 ca         1 3RU      -0.215600
     18 C1          -0.6730     0.0010     1.1840 ca         1 3RU      -0.131000
     19 C2           0.0130    -0.0030     2.3960 ca         1 3RU      -0.120000
     20 C3           1.3740     0.0030     2.4320 ca         1 3RU      -0.166300
     21 N7           3.4410    -0.0010     1.2390 nb         1 3RU      -0.707000
     22 N11          5.5160    -0.0030     0.1730 nv         1 3RU      -1.079500
     23 H4          -0.5450     0.0030    -0.9360 ha         1 3RU       0.132000
     24 H10          1.6290    -0.0030    -2.1630 ha         1 3RU       0.142000
     25 H13          5.4120     1.7680    -1.8640 hc         1 3RU       0.061700
     26 H13A         3.9520     2.0740    -2.8140 hc         1 3RU       0.061700
     27 H17          7.8160     1.9100    -5.5120 h1         1 3RU       0.054200
     28 H17A         6.3560     2.2160    -6.4620 h1         1 3RU       0.054200
     29 H20          9.5330     5.3700    -8.2880 hc         1 3RU       0.041700
     30 H20A         9.4040     5.7690    -6.5670 hc         1 3RU       0.041700
     31 H21          7.1390     5.9020    -8.5890 hc         1 3RU       0.042700
     32 H21A         8.0190     7.2930    -7.9320 hc         1 3RU       0.042700
     33 H22          5.8860     6.9430    -6.7310 hc         1 3RU       0.041700
     34 H22A         7.2720     6.6880    -5.6560 hc         1 3RU       0.041700
     35 H19          7.8510     3.5840    -7.9990 hc         1 3RU       0.043950
     36 H19A         9.2370     3.3300    -6.9240 hc         1 3RU       0.043950
     37 H23          5.5900     4.9030    -5.3670 hc         1 3RU       0.043950
     38 H23A         5.7190     4.5040    -7.0890 hc         1 3RU       0.043950
     39 H18          7.9840     4.3730    -5.0670 hc         1 3RU       0.053700
     40 HN15         6.0470     3.4130    -3.8870 hn         1 3RU       0.313500
     41 H12          3.7100    -0.3530    -3.2230 hc         1 3RU       0.065700
     42 H12A         5.1710    -0.6590    -2.2730 hc         1 3RU       0.065700
     43 H1          -1.7560    -0.0030     1.1830 ha         1 3RU       0.130000
     44 H2          -0.5460    -0.0020     3.3240 ha         1 3RU       0.132000
     45 H3           1.8930    -0.0010     3.3840 ha         1 3RU       0.148000
     46 HN11         6.0210    -0.8580     0.0450 hn         1 3RU       0.436800
     47 HN1A         6.0080     0.8390     0.4010 hn         1 3RU       0.436800
     48 C12          4.3180    -0.0030    -2.3970 c3         1 3RU      -0.008100
@<TRIPOS>BOND
     1     2     1 ar
     2     1    18 ar
     3     1    23 1
     4     3     2 ar
     5     5     2 ar
     6    21     3 ar
     7     3    20 ar
     8    22     4 1
     9     4    21 ar
    10     4    17 ar
    11    17     5 ar
    12     5    24 1
    13     6    15 1
    14     6    48 1
    15     6    25 1
    16     6    26 1
    17    14     7 1
    18    13     7 1
    19     7    27 1
    20     7    28 1
    21     8    11 1
    22     8     9 1
    23     8    29 1
    24     8    30 1
    25     9    10 1
    26     9    31 1
    27     9    32 1
    28    10    12 1
    29    10    33 1
    30    10    34 1
    31    11    13 1
    32    11    35 1
    33    11    36 1
    34    13    12 1
    35    12    37 1
    36    12    38 1
    37    13    39 1
    38    14    15 1
    39    14    40 1
    40    15    16 2
    41    48    17 1
    42    48    41 1
    43    48    42 1
    44    19    18 ar
    45    18    43 1
    46    20    19 ar
    47    19    44 1
    48    20    45 1
    49    22    46 1
    50    22    47 1
@<TRIPOS>SUBSTRUCTURE
     1 3RU         1 TEMP              0 ****  ****    0 ROOT
