@<TRIPOS>MOLECULE
3RV
   40    43     1     0     0
SMALL
bcc


@<TRIPOS>ATOM
      1 C1           0.0000     0.0000     0.0000 ca         1 3RV       0.055900
      2 C2           1.3880     0.0000     0.0000 ca         1 3RV      -0.132000
      3 C3           2.0860     0.0000     1.1910 ca         1 3RV      -0.147000
      4 C4           1.4020     0.0010     2.3980 ca         1 3RV      -0.046400
      5 C5          -0.0010     0.0020     2.4040 ca         1 3RV      -0.104600
      6 C6          -0.6970     0.0060     1.1910 ca         1 3RV      -0.082000
      7 C7          -0.7390     0.0080     3.6800 c          1 3RV       0.985200
      8 O8          -0.1350     0.1190     4.7290 o          1 3RV      -0.867300
      9 F10         -0.6720    -0.0000    -1.1720 f          1 3RV      -0.145900
     10 N11          2.1050     0.0020     3.6000 nu         1 3RV      -0.112600
     11 C13          3.4660     0.1760     3.5980 cc         1 3RV       0.543100
     12 N14          4.2150     0.4540     2.5570 nd         1 3RV      -0.730100
     13 C15          5.5150     0.5970     2.6930 c          1 3RV       0.728700
     14 C16          6.0140     0.4190     4.0680 cc         1 3RV      -0.088600
     15 S17          4.5430     0.0750     5.0020 ss         1 3RV      -0.328800
     16 O18          6.2510     0.8560     1.7540 o          1 3RV      -0.602100
     17 C19          7.2930     0.5040     4.5150 cf         1 3RV       0.035800
     18 C21          7.6200     0.0920     5.8820 ca         1 3RV      -0.063800
     19 C22          6.7660    -0.7440     6.5970 ca         1 3RV      -0.105000
     20 C23          7.0780    -1.1320     7.8920 ca         1 3RV      -0.090000
     21 C24          8.2190    -0.7180     8.5110 ca         1 3RV      -0.092000
     22 C25          9.1280     0.1260     7.8510 ca         1 3RV      -0.038000
     23 C26          8.8550     0.5440     6.5260 ca         1 3RV      -0.015000
     24 O1          -2.0810    -0.1090     3.6840 o          1 3RV      -0.867300
     25 C36          9.7580     1.3830     5.8650 ca         1 3RV      -0.091000
     26 C37         10.8920     1.7910     6.5050 ca         1 3RV      -0.103000
     27 C38         11.1640     1.3820     7.8070 ca         1 3RV      -0.109000
     28 C39         10.3080     0.5610     8.4780 ca         1 3RV      -0.090000
     29 H1           1.9260    -0.0030    -0.9400 ha         1 3RV       0.106000
     30 H2           3.1690    -0.0000     1.1820 ha         1 3RV       0.188000
     31 H3          -1.7800     0.0060     1.1870 ha         1 3RV       0.145000
     32 H4           1.6230    -0.1640     4.4610 hn         1 3RV       0.368800
     33 H5           8.0780     0.8430     3.8500 ha         1 3RV       0.127000
     34 H6           5.8490    -1.0940     6.1380 ha         1 3RV       0.155000
     35 H7           6.3960    -1.7830     8.4260 ha         1 3RV       0.102000
     36 H8           8.4270    -1.0420     9.5230 ha         1 3RV       0.100000
     37 H10          9.5570     1.7070     4.8510 ha         1 3RV       0.115000
     38 H11         11.5890     2.4440     5.9930 ha         1 3RV       0.098000
     39 H12         12.0710     1.7190     8.2940 ha         1 3RV       0.096000
     40 H13         10.5320     0.2510     9.4920 ha         1 3RV       0.102000
@<TRIPOS>BOND
     1     1     2 ar  
     2     1     6 ar  
     3     1     9 1   
     4     2     3 ar  
     5     2    29 1   
     6     3     4 ar  
     7     3    30 1   
     8     4     5 ar  
     9     4    10 1   
    10     5     6 ar  
    11     5     7 1   
    12     6    31 1   
    13     7     8 1   
    14     7    24 1   
    15    10    11 1   
    16    10    32 1   
    17    11    12 2   
    18    11    15 1   
    19    12    13 1   
    20    13    14 1   
    21    13    16 2   
    22    14    15 1   
    23    14    17 2   
    24    17    18 1   
    25    17    33 1   
    26    18    19 ar  
    27    18    23 ar  
    28    19    20 ar  
    29    19    34 1   
    30    20    21 ar  
    31    20    35 1   
    32    21    22 ar  
    33    21    36 1   
    34    22    23 ar  
    35    22    28 ar  
    36    23    25 ar  
    37    25    26 ar  
    38    25    37 1   
    39    26    27 ar  
    40    26    38 1   
    41    27    28 ar  
    42    27    39 1   
    43    28    40 1   
@<TRIPOS>SUBSTRUCTURE
     1 3RV         1 TEMP              0 ****  ****    0 ROOT
