@<TRIPOS>MOLECULE
molecule
   40    43     1     0     0
SMALL
bcc


@<TRIPOS>ATOM
      1 C1           0.0000     0.0000     0.0000 ca         1 3RV       0.083900
      2 C2           1.3880     0.0000     0.0000 ca         1 3RV      -0.167000
      3 C3           2.0860     0.0000     1.1910 ca         1 3RV      -0.152000
      4 C4           1.4020     0.0010     2.3980 ca         1 3RV       0.117600
      5 C5          -0.0010     0.0020     2.4040 ca         1 3RV      -0.111600
      6 C6          -0.6970     0.0060     1.1910 ca         1 3RV      -0.116000
      7 C7          -0.7390     0.0080     3.6800 c          1 3RV       0.893200
      8 O8          -0.1350     0.1190     4.7290 o          1 3RV      -0.825300
      9 F10         -0.6720    -0.0000    -1.1720 f          1 3RV      -0.163900
     10 N11          2.1050     0.0020     3.6000 nu         1 3RV      -0.611600
     11 C13          3.4660     0.1760     3.5980 cc         1 3RV       0.744100
     12 N14          4.2150     0.4540     2.5570 nd         1 3RV      -0.807100
     13 C15          5.5150     0.5970     2.6930 c          1 3RV       0.723700
     14 C16          6.0140     0.4190     4.0680 cd         1 3RV      -0.100600
     15 S17          4.5430     0.0750     5.0020 ss         1 3RV      -0.270800
     16 O18          6.2510     0.8560     1.7540 o          1 3RV      -0.559100
     17 C19          7.2930     0.5040     4.5150 ce         1 3RV      -0.018200
     18 C21          7.6200     0.0920     5.8820 ca         1 3RV      -0.062800
     19 C22          6.7660    -0.7440     6.5970 ca         1 3RV      -0.110000
     20 C23          7.0780    -1.1320     7.8920 ca         1 3RV      -0.118000
     21 C24          8.2190    -0.7180     8.5110 ca         1 3RV      -0.118000
     22 C25          9.1280     0.1260     7.8510 ca         1 3RV      -0.036000
     23 C26          8.8550     0.5440     6.5260 ca         1 3RV      -0.020000
     24 O1          -2.0810    -0.1090     3.6840 o          1 3RV      -0.825300
     25 C36          9.7580     1.3830     5.8650 ca         1 3RV      -0.112000
     26 C37         10.8920     1.7910     6.5050 ca         1 3RV      -0.130000
     27 C38         11.1640     1.3820     7.8070 ca         1 3RV      -0.132000
     28 C39         10.3080     0.5610     8.4780 ca         1 3RV      -0.118000
     29 H1           1.9260    -0.0030    -0.9400 ha         1 3RV       0.130000
     30 H2           3.1690    -0.0000     1.1820 ha         1 3RV       0.201000
     31 H3          -1.7800     0.0060     1.1870 ha         1 3RV       0.172000
     32 H4           1.6230    -0.1640     4.4610 hn         1 3RV       0.524800
     33 H5           8.0920     0.7290     3.8190 ha         1 3RV       0.160000
     34 H6           5.8490    -1.0940     6.1380 ha         1 3RV       0.162000
     35 H7           6.3960    -1.7830     8.4260 ha         1 3RV       0.131000
     36 H8           8.4270    -1.0420     9.5230 ha         1 3RV       0.127000
     37 H10          9.5570     1.7070     4.8510 ha         1 3RV       0.140000
     38 H11         11.5890     2.4440     5.9930 ha         1 3RV       0.126000
     39 H12         12.0710     1.7190     8.2940 ha         1 3RV       0.122000
     40 H13         10.5320     0.2510     9.4920 ha         1 3RV       0.128000
@<TRIPOS>BOND
     1    21    20 ar  
     2    21    22 ar  
     3    20    19 ar  
     4    28    22 ar  
     5    28    27 ar  
     6     8     7 1   
     7    22    23 ar  
     8    24     7 1   
     9    19    18 ar  
    10     7     5 1   
    11    27    26 ar  
    12    23    18 ar  
    13    23    25 ar  
    14    18    17 1   
    15    15    11 1   
    16    15    14 1   
    17    10    11 1   
    18    10     4 1   
    19     5     6 ar  
    20     5     4 ar  
    21    26    25 ar  
    22    11    12 2   
    23    17    14 2   
    24     6     1 ar  
    25    14    13 1   
    26     4     3 ar  
    27    12    13 1   
    28    13    16 2   
    29     1     9 1   
    30     1     2 ar  
    31     3     2 ar  
    32     2    29 1   
    33     3    30 1   
    34     6    31 1   
    35    10    32 1   
    36    17    33 1   
    37    19    34 1   
    38    20    35 1   
    39    21    36 1   
    40    25    37 1   
    41    26    38 1   
    42    27    39 1   
    43    28    40 1   
@<TRIPOS>SUBSTRUCTURE
     1 3RV         1 TEMP              0 ****  ****    0 ROOT
