@<TRIPOS>MOLECULE
3RW
   52    55     1     0     0
SMALL
bcc


@<TRIPOS>ATOM
      1 C1           0.0000     0.0000     0.0000 ca         1 3RW       0.693900
      2 N1           7.0930     2.3890     5.1520 nu         1 3RW      -0.505900
      3 O1           3.4690    -0.9730     4.8230 o          1 3RW      -0.515100
      4 C2           2.0050     0.0000     1.1410 ca         1 3RW       0.588200
      5 N2           1.3210     0.0000     0.0000 nb         1 3RW      -0.743000
      6 C3           0.4700     0.0240     4.4630 cc         1 3RW      -0.221100
      7 N3          -0.7100     0.0070     1.1070 nb         1 3RW      -0.691000
      8 C4           1.6490     0.0270     3.7710 cd         1 3RW      -0.210400
      9 N4          -0.5700     0.0200     3.5920 na         1 3RW       0.336900
     10 C5           1.2890     0.0120     2.3450 ca         1 3RW      -0.381400
     11 N5           3.3880    -0.0010     1.1390 nv         1 3RW      -0.501500
     12 C6          -0.1140     0.0130     2.2980 ca         1 3RW       0.305800
     13 N6           3.9380     3.5900     3.8540 nb         1 3RW      -0.512000
     14 C7          -1.9820     0.0220     3.9780 c3         1 3RW      -0.083000
     15 N7           5.0640     1.2780     4.7360 nb         1 3RW      -0.567000
     16 C8          -2.2840    -1.2220     4.8160 c3         1 3RW      -0.010100
     17 N8          11.5370     6.0770     4.4950 nb         1 3RW      -0.577000
     18 C9           3.0020     0.0410     4.3380 c          1 3RW       0.555800
     19 C10          3.7990     1.2890     4.3210 ca         1 3RW       0.223500
     20 C11          3.2260     2.4760     3.8690 ca         1 3RW       0.249900
     21 C12          5.1920     3.5830     4.2650 ca         1 3RW       0.219900
     22 C13          5.7730     2.3960     4.7200 ca         1 3RW       0.390900
     23 C14         -2.2840     1.2760     4.8020 c3         1 3RW      -0.010100
     24 C15         10.0920     4.6210     5.6360 ca         1 3RW      -0.218600
     25 C16         10.1040     5.4610     6.7380 ca         1 3RW      -0.063000
     26 C17         10.8290     4.9650     4.5190 ca         1 3RW       0.411200
     27 C18          9.2860     3.3470     5.6560 c3         1 3RW       0.031900
     28 C19         10.8600     6.6210     6.6760 ca         1 3RW      -0.217300
     29 C20          7.8760     3.6270     5.1330 c3         1 3RW       0.160800
     30 C21         11.5710     6.9000     5.5240 ca         1 3RW       0.406200
     31 H1          -0.5200    -0.0000    -0.9510 h5         1 3RW      -0.005900
     32 HN1          7.5040     1.5420     5.4910 hn         1 3RW       0.305800
     33 H3           0.3800     0.0250     5.5430 h4         1 3RW       0.152000
     34 HN5          3.8870    -0.0130     0.2710 hn         1 3RW       0.276300
     35 HN5A         3.8900    -0.0420     2.0040 hn         1 3RW       0.276300
     36 H7          -2.6000     0.0170     3.0880 h1         1 3RW       0.068700
     37 H8          -3.3560    -1.3280     4.9320 hc         1 3RW       0.014867
     38 H8A         -1.8880    -2.0980     4.3170 hc         1 3RW       0.014867
     39 H8B         -1.8230    -1.1220     5.7910 hc         1 3RW       0.014867
     40 H11          2.1970     2.4860     3.5310 h4         1 3RW       0.007100
     41 H12          5.7710     4.4980     4.2510 h4         1 3RW      -0.000900
     42 H14         -1.7870     1.2060     5.7620 hc         1 3RW       0.014867
     43 H14A        -1.9240     2.1510     4.2730 hc         1 3RW       0.014867
     44 H14B        -3.3530     1.3600     4.9540 hc         1 3RW       0.014867
     45 H16          9.5360     5.2170     7.6280 ha         1 3RW       0.112000
     46 H17         10.8250     4.3130     3.6530 h4         1 3RW      -0.016900
     47 H18          9.2270     2.9730     6.6710 hc         1 3RW       0.026200
     48 H18A         9.7640     2.6070     5.0260 hc         1 3RW       0.026200
     49 H19         10.8930     7.3020     7.5180 ha         1 3RW       0.115000
     50 H20          7.9350     4.0010     4.1180 h1         1 3RW       0.020700
     51 H20A         7.3980     4.3670     5.7630 h1         1 3RW       0.020700
     52 H21         12.1650     7.8040     5.4660 h4         1 3RW      -0.018900
@<TRIPOS>BOND
     1     1     5 ar  
     2     1     7 ar  
     3     1    31 1   
     4     2    22 1   
     5     2    29 1   
     6     2    32 1   
     7     3    18 2   
     8     4     5 ar  
     9     4    10 ar  
    10     4    11 1   
    11     6     8 2   
    12     6     9 1   
    13     6    33 1   
    14     7    12 ar  
    15     8    10 1   
    16     8    18 1   
    17     9    12 1   
    18     9    14 1   
    19    10    12 ar  
    20    11    34 1   
    21    11    35 1   
    22    13    20 ar  
    23    13    21 ar  
    24    14    16 1   
    25    14    23 1   
    26    14    36 1   
    27    15    19 ar  
    28    15    22 ar  
    29    16    37 1   
    30    16    38 1   
    31    16    39 1   
    32    17    26 ar  
    33    17    30 ar  
    34    18    19 1   
    35    19    20 ar  
    36    20    40 1   
    37    21    22 ar  
    38    21    41 1   
    39    23    42 1   
    40    23    43 1   
    41    23    44 1   
    42    24    25 ar  
    43    24    26 ar  
    44    24    27 1   
    45    25    28 ar  
    46    25    45 1   
    47    26    46 1   
    48    27    29 1   
    49    27    47 1   
    50    27    48 1   
    51    28    30 ar  
    52    28    49 1   
    53    29    50 1   
    54    29    51 1   
    55    30    52 1   
@<TRIPOS>SUBSTRUCTURE
     1 3RW         1 TEMP              0 ****  ****    0 ROOT
