@<TRIPOS>MOLECULE
3RX
   62    64     1     0     0
SMALL
bcc


@<TRIPOS>ATOM
      1 CAA          0.0000     0.0000     0.0000 c3         1 3RX       0.059600
      2 CAB          2.2610     0.0000     1.3050 c3         1 3RX       0.059600
      3 CAC          1.5910     0.1260    -5.7610 c3         1 3RX       0.052100
      4 CAD          2.1620    -0.0010    -1.1340 c2         1 3RX      -0.173200
      5 CAE         -0.0770     1.6280    -4.8010 c2         1 3RX      -0.172200
      6 CAF          1.4110    -0.1010    -2.4380 c3         1 3RX       0.007800
      7 CAG         -0.8890     1.4350    -6.0560 c3         1 3RX       0.179000
      8 CAH         -3.0820     0.8420    -6.8970 c3         1 3RX       0.140800
      9 CAI         -4.4970     0.4330    -6.4840 c3         1 3RX       0.136800
     10 CAJ          1.7970     1.0750    -3.3390 c3         1 3RX       0.031800
     11 CAK         -8.7140    -2.3980    -9.1610 c3         1 3RX      -0.016400
     12 CAL         -8.1700    -2.0850    -6.7420 c3         1 3RX      -0.014400
     13 CAM         -6.3310    -2.3830    -8.4090 c3         1 3RX      -0.014400
     14 CAN         -9.0710    -0.1750    -8.0780 c3         1 3RX      -0.014400
     15 CAO         -7.2320    -0.4730    -9.7440 c3         1 3RX      -0.014400
     16 NAP         -2.2580     1.0400    -5.6970 n7         1 3RX      -0.579200
     17 NAQ         -5.3190     0.2350    -7.6850 n7         1 3RX      -0.581200
     18 CAR          1.5070     0.0000     0.0000 c2         1 3RX      -0.147400
     19 CAS          1.0470     0.9760    -4.6420 c2         1 3RX      -0.130400
     20 CAT         -9.1270    -1.6890    -7.8700 c3         1 3RX      -0.039200
     21 CAU         -7.2890    -1.9880    -9.5350 c3         1 3RX      -0.039200
     22 CAV         -6.7440    -1.6750    -7.1170 c3         1 3RX      -0.039700
     23 CAW         -7.6440     0.2360    -8.4520 c3         1 3RX      -0.039700
     24 CAX         -6.6880    -0.1600    -7.3250 c3         1 3RX       0.129500
     25 HAA         -0.3610    -0.8910    -0.4990 hc         1 3RX       0.007033
     26 HAAA        -0.3610     0.8780    -0.5220 hc         1 3RX       0.007033
     27 HAAB        -0.3610     0.0130     1.0210 hc         1 3RX       0.007033
     28 HAB          2.2520    -0.9980     1.7270 hc         1 3RX       0.007033
     29 HABA         1.7880     0.6880     1.9950 hc         1 3RX       0.007033
     30 HABB         3.2850     0.3090     1.1310 hc         1 3RX       0.007033
     31 HAC          1.6980     0.7290    -6.6540 hc         1 3RX       0.010033
     32 HACA         0.9080    -0.6920    -5.9580 hc         1 3RX       0.010033
     33 HACB         2.5580    -0.2720    -5.4760 hc         1 3RX       0.010033
     34 HAD          3.2450    -0.0010    -1.1330 ha         1 3RX       0.106000
     35 HAE         -0.4650     2.2390    -3.9960 ha         1 3RX       0.107000
     36 HAF          1.6650    -1.0320    -2.9300 hc         1 3RX       0.026700
     37 HAFA         0.3460    -0.0730    -2.2440 hc         1 3RX       0.026700
     38 HAG         -0.9160     2.3620    -6.6160 h1         1 3RX       0.014700
     39 HAGA        -0.4380     0.6600    -6.6630 h1         1 3RX       0.014700
     40 HAH         -2.6450     0.0620    -7.5100 h1         1 3RX       0.010200
     41 HAHA        -3.1230     1.7640    -7.4630 h1         1 3RX       0.010200
     42 HAI         -4.9330     1.2120    -5.8720 h1         1 3RX       0.012700
     43 HAIA        -4.4550    -0.4900    -5.9180 h1         1 3RX       0.012700
     44 HAJ          2.8630     1.0460    -3.5330 hc         1 3RX       0.016700
     45 HAJA         1.5450     2.0060    -2.8470 hc         1 3RX       0.016700
     46 HAKA        -8.7540    -3.4700    -9.0130 hc         1 3RX       0.013700
     47 HAL         -8.2100    -3.1570    -6.5940 hc         1 3RX       0.017200
     48 HALA        -8.4610    -1.5830    -5.8280 hc         1 3RX       0.017200
     49 HAM         -6.3700    -3.4560    -8.2610 hc         1 3RX       0.017200
     50 HAMA        -5.3220    -2.0920    -8.6740 hc         1 3RX       0.017200
     51 HAN         -9.3620     0.3270    -7.1630 hc         1 3RX       0.017200
     52 HANA        -9.7480     0.1060    -8.8750 hc         1 3RX       0.017200
     53 HAO         -7.9100    -0.1930   -10.5410 hc         1 3RX       0.017200
     54 HAOA        -6.2230    -0.1820   -10.0090 hc         1 3RX       0.017200
     55 HNAP        -2.6700     1.7490    -5.1230 hn         1 3RX       0.249800
     56 HNAQ        -5.3440     1.0830    -8.2150 hn         1 3RX       0.254800
     57 HAT        -10.1360    -1.9800    -7.6050 hc         1 3RX       0.021700
     58 HAU         -6.9970    -2.4900   -10.4500 hc         1 3RX       0.021700
     59 HAV         -6.0670    -1.9550    -6.3190 hc         1 3RX       0.023700
     60 HAW         -7.6040     1.3080    -8.6000 hc         1 3RX       0.023700
     61 HAX         -6.9800     0.3420    -6.4110 h1         1 3RX       0.012700
     62 HAK         -9.3910    -2.1180    -9.9590 hc         1 3RX       0.013700
@<TRIPOS>BOND
     1     1    18 1   
     2     1    25 1   
     3     1    26 1   
     4     1    27 1   
     5     2    18 1   
     6     2    28 1   
     7     2    29 1   
     8     2    30 1   
     9     3    19 1   
    10     3    31 1   
    11     3    32 1   
    12     3    33 1   
    13     4     6 1   
    14     4    18 2   
    15     4    34 1   
    16     5     7 1   
    17     5    19 2   
    18     5    35 1   
    19     6    10 1   
    20     6    36 1   
    21     6    37 1   
    22     7    16 1   
    23     7    38 1   
    24     7    39 1   
    25     8     9 1   
    26     8    16 1   
    27     8    40 1   
    28     8    41 1   
    29     9    17 1   
    30     9    42 1   
    31     9    43 1   
    32    10    19 1   
    33    10    44 1   
    34    10    45 1   
    35    11    20 1   
    36    11    21 1   
    37    11    46 1   
    38    11    62 1   
    39    12    20 1   
    40    12    22 1   
    41    12    47 1   
    42    12    48 1   
    43    13    21 1   
    44    13    22 1   
    45    13    49 1   
    46    13    50 1   
    47    14    20 1   
    48    14    23 1   
    49    14    51 1   
    50    14    52 1   
    51    15    21 1   
    52    15    23 1   
    53    15    53 1   
    54    15    54 1   
    55    16    55 1   
    56    17    24 1   
    57    17    56 1   
    58    20    57 1   
    59    21    58 1   
    60    22    24 1   
    61    22    59 1   
    62    23    24 1   
    63    23    60 1   
    64    24    61 1   
@<TRIPOS>SUBSTRUCTURE
     1 3RX         1 TEMP              0 ****  ****    0 ROOT
