@<TRIPOS>MOLECULE
molecule
   62    64     1     0     0
SMALL
bcc


@<TRIPOS>ATOM
      1 CAA          0.0000     0.0000     0.0000 c3         1 3RX      -0.095400
      2 CAB          2.2610     0.0000     1.3050 c3         1 3RX      -0.095400
      3 CAC          1.5910     0.1260    -5.7610 c3         1 3RX      -0.134900
      4 CAD          2.1620    -0.0010    -1.1340 c2         1 3RX      -0.521200
      5 CAE         -0.0770     1.6280    -4.8010 c2         1 3RX      -0.508200
      6 CAF          1.4110    -0.1010    -2.4380 c3         1 3RX      -0.084200
      7 CAG         -0.8890     1.4350    -6.0560 c3         1 3RX       0.158000
      8 CAH         -3.0820     0.8420    -6.8970 c3         1 3RX       0.146800
      9 CAI         -4.4970     0.4330    -6.4840 c3         1 3RX       0.155800
     10 CAJ          1.7970     1.0750    -3.3390 c3         1 3RX      -0.074200
     11 CAK         -8.7140    -2.3980    -9.1610 c3         1 3RX      -0.068400
     12 CAL         -8.1700    -2.0850    -6.7420 c3         1 3RX      -0.064900
     13 CAM         -6.3310    -2.3830    -8.4090 c3         1 3RX      -0.064900
     14 CAN         -9.0710    -0.1750    -8.0780 c3         1 3RX      -0.064900
     15 CAO         -7.2320    -0.4730    -9.7440 c3         1 3RX      -0.064900
     16 NAP         -2.2580     1.0400    -5.6970 n7         1 3RX      -0.781200
     17 NAQ         -5.3190     0.2350    -7.6850 n7         1 3RX      -0.818200
     18 CAR          1.5070     0.0000     0.0000 c2         1 3RX       0.036600
     19 CAS          1.0470     0.9760    -4.6420 c2         1 3RX       0.070600
     20 CAT         -9.1270    -1.6890    -7.8700 c3         1 3RX      -0.064200
     21 CAU         -7.2890    -1.9880    -9.5350 c3         1 3RX      -0.064200
     22 CAV         -6.7440    -1.6750    -7.1170 c3         1 3RX      -0.060700
     23 CAW         -7.6440     0.2360    -8.4520 c3         1 3RX      -0.060700
     24 CAX         -6.6880    -0.1600    -7.3250 c3         1 3RX       0.178500
     25 HAA         -0.3610    -0.8790    -0.5210 hc         1 3RX       0.052867
     26 HAAA        -0.3610     0.8900    -0.5010 hc         1 3RX       0.052867
     27 HAAB        -0.3610    -0.0110     1.0210 hc         1 3RX       0.052867
     28 HAB          2.0480     0.9150     1.8450 hc         1 3RX       0.052867
     29 HABA         3.3240    -0.0640     1.1080 hc         1 3RX       0.052867
     30 HABB         1.9520    -0.8510     1.9010 hc         1 3RX       0.052867
     31 HAC          1.7180     0.7340    -6.6480 hc         1 3RX       0.056700
     32 HACA         2.5480    -0.2890    -5.4680 hc         1 3RX       0.056700
     33 HACB         0.8980    -0.6800    -5.9730 hc         1 3RX       0.056700
     34 HAD          1.7000     0.8580    -1.6050 ha         1 3RX       0.338000
     35 HAE          0.1490     2.1600    -5.7180 ha         1 3RX       0.312000
     36 HAF          0.3460    -0.0730    -2.2440 hc         1 3RX       0.066700
     37 HAFA         1.6650    -1.0320    -2.9300 hc         1 3RX       0.066700
     38 HAG         -0.4380     0.6600    -6.6630 h1         1 3RX       0.016700
     39 HAGA        -0.9160     2.3620    -6.6160 h1         1 3RX       0.016700
     40 HAH         -3.1230     1.7640    -7.4630 h1         1 3RX       0.034200
     41 HAHA        -2.6450     0.0620    -7.5100 h1         1 3RX       0.034200
     42 HAI         -4.4550    -0.4900    -5.9180 h1         1 3RX       0.040200
     43 HAIA        -4.9330     1.2120    -5.8720 h1         1 3RX       0.040200
     44 HAJ          2.8630     1.0460    -3.5330 hc         1 3RX       0.067700
     45 HAJA         1.5450     2.0060    -2.8470 hc         1 3RX       0.067700
     46 HAKA        -9.3910    -2.1180    -9.9590 hc         1 3RX       0.039700
     47 HAL         -8.2100    -3.1570    -6.5940 hc         1 3RX       0.043450
     48 HALA        -8.4610    -1.5830    -5.8280 hc         1 3RX       0.043450
     49 HAM         -5.3220    -2.0920    -8.6740 hc         1 3RX       0.043450
     50 HAMA        -6.3700    -3.4560    -8.2610 hc         1 3RX       0.043450
     51 HAN         -9.3620     0.3270    -7.1630 hc         1 3RX       0.043450
     52 HANA        -9.7480     0.1060    -8.8750 hc         1 3RX       0.043450
     53 HAO         -6.2230    -0.1820   -10.0090 hc         1 3RX       0.043450
     54 HAOA        -7.9100    -0.1930   -10.5410 hc         1 3RX       0.043450
     55 HNAP        -2.6700     1.7490    -5.1230 hn         1 3RX       0.367800
     56 HNAQ        -5.3440     1.0830    -8.2150 hn         1 3RX       0.349800
     57 HAT        -10.1360    -1.9800    -7.6050 hc         1 3RX       0.046700
     58 HAU         -6.9970    -2.4900   -10.4500 hc         1 3RX       0.046700
     59 HAV         -6.0670    -1.9550    -6.3190 hc         1 3RX       0.046200
     60 HAW         -7.6040     1.3080    -8.6000 hc         1 3RX       0.046200
     61 HAX         -6.9800     0.3420    -6.4110 h1         1 3RX       0.026700
     62 HAK         -8.7540    -3.4700    -9.0130 hc         1 3RX       0.039700
@<TRIPOS>BOND
     1    18     1 1   
     2     1    25 1   
     3     1    26 1   
     4     1    27 1   
     5     2    18 1   
     6     2    28 1   
     7     2    29 1   
     8     2    30 1   
     9    19     3 1   
    10     3    31 1   
    11     3    32 1   
    12     3    33 1   
    13    18     4 2   
    14     6     4 1   
    15     4    34 1   
    16     5     7 1   
    17     5    19 2   
    18     5    35 1   
    19     6    10 1   
    20     6    36 1   
    21     6    37 1   
    22     7    16 1   
    23     7    38 1   
    24     7    39 1   
    25     8     9 1   
    26     8    16 1   
    27     8    40 1   
    28     8    41 1   
    29    17     9 1   
    30     9    42 1   
    31     9    43 1   
    32    19    10 1   
    33    10    44 1   
    34    10    45 1   
    35    21    11 1   
    36    11    20 1   
    37    11    62 1   
    38    11    46 1   
    39    22    12 1   
    40    20    12 1   
    41    12    47 1   
    42    12    48 1   
    43    21    13 1   
    44    13    22 1   
    45    13    49 1   
    46    13    50 1   
    47    23    14 1   
    48    14    20 1   
    49    14    51 1   
    50    14    52 1   
    51    15    21 1   
    52    15    23 1   
    53    15    53 1   
    54    15    54 1   
    55    16    55 1   
    56    17    24 1   
    57    17    56 1   
    58    20    57 1   
    59    21    58 1   
    60    24    22 1   
    61    22    59 1   
    62    23    24 1   
    63    23    60 1   
    64    24    61 1   
@<TRIPOS>SUBSTRUCTURE
     1 3RX         1 TEMP              0 ****  ****    0 ROOT
