@<TRIPOS>MOLECULE
3RY
   42    45     1     0     0
SMALL
bcc


@<TRIPOS>ATOM
      1 O8           0.0000     0.0000     0.0000 o          1 3RY      -0.877800
      2 C7           1.3470     0.0000     0.0000 c          1 3RY       0.994200
      3 O1           1.9550     0.0000     1.0520 o          1 3RY      -0.877800
      4 C5           2.0840    -0.0010    -1.2760 ca         1 3RY      -0.143600
      5 C4           3.4880    -0.0100    -1.2820 ca         1 3RY      -0.004400
      6 C3           4.1710    -0.0120    -2.4910 ca         1 3RY      -0.184000
      7 C2           3.4700    -0.0030    -3.6810 ca         1 3RY      -0.093000
      8 C1           2.0840     0.0050    -3.6800 ca         1 3RY      -0.155000
      9 C6           1.3900     0.0000    -2.4880 ca         1 3RY      -0.045000
     10 N11          4.1920    -0.0170    -0.0830 nu         1 3RY      -0.195600
     11 C13          5.5430     0.1350    -0.0870 ce         1 3RY       0.720500
     12 N14          6.3180     0.3970    -1.1100 nf         1 3RY      -0.618100
     13 C15          7.6110     0.4950    -0.8260 c          1 3RY       0.751700
     14 S17          6.6520     0.0320     1.2940 sx         1 3RY      -0.238600
     15 O18          8.4410     0.7360    -1.6890 o          1 3RY      -0.678100
     16 C16          7.9760     0.3080     0.5080 ce         1 3RY      -0.759400
     17 C19          9.3690     0.3680     1.0800 c3         1 3RY       0.197100
     18 C21         10.0130    -0.9890     0.9780 ca         1 3RY      -0.076300
     19 C22         10.7690    -1.3080    -0.1080 ca         1 3RY      -0.082000
     20 C23         11.3780    -2.5570    -0.2170 ca         1 3RY      -0.089000
     21 C24         11.2350    -3.4940     0.7590 ca         1 3RY      -0.115000
     22 C25         10.4630    -3.2020     1.8960 ca         1 3RY      -0.034000
     23 C26          9.8430    -1.9310     2.0070 ca         1 3RY      -0.029000
     24 C39         10.2920    -4.1440     2.9250 ca         1 3RY      -0.085000
     25 C38          9.5370    -3.8240     4.0110 ca         1 3RY      -0.113000
     26 C37          8.9280    -2.5760     4.1210 ca         1 3RY      -0.107000
     27 C36          9.0750    -1.6370     3.1460 ca         1 3RY      -0.114000
     28 H2           5.2540    -0.0180    -2.5020 ha         1 3RY       0.179000
     29 H3           4.0070    -0.0020    -4.6220 ha         1 3RY       0.089000
     30 H4           1.5440     0.0090    -4.6190 ha         1 3RY       0.087000
     31 H5           0.3060     0.0070    -2.4920 ha         1 3RY       0.128000
     32 H6           3.7080    -0.1700     0.7790 hn         1 3RY       0.365800
     33 H7           9.3200     0.6680     2.1200 hc         1 3RY       0.019200
     34 H8           9.9570     1.0890     0.5250 hc         1 3RY       0.019200
     35 H9          10.8990    -0.5800    -0.8990 ha         1 3RY       0.129000
     36 H10         11.9740    -2.7850    -1.0930 ha         1 3RY       0.096000
     37 H11         11.7150    -4.4600     0.6610 ha         1 3RY       0.099000
     38 H12         10.7590    -5.1190     2.8530 ha         1 3RY       0.100000
     39 H13          9.4040    -4.5540     4.8010 ha         1 3RY       0.095000
     40 H14          8.3320    -2.3480     4.9960 ha         1 3RY       0.096000
     41 H15          8.5960    -0.6700     3.2450 ha         1 3RY       0.107000
     42 H16          6.4300    -0.2100     2.5800 hs         1 3RY       0.441000
@<TRIPOS>BOND
     1     1     2 1   
     2     2     3 1   
     3     2     4 1   
     4     4     5 ar  
     5     4     9 ar  
     6     5     6 ar  
     7     5    10 1   
     8     6     7 ar  
     9     6    28 1   
    10     7     8 ar  
    11     7    29 1   
    12     8     9 ar  
    13     8    30 1   
    14     9    31 1   
    15    10    11 1   
    16    10    32 1   
    17    11    12 2   
    18    11    14 1   
    19    12    13 1   
    20    13    15 2   
    21    13    16 1   
    22    14    16 2   
    23    14    42 1   
    24    16    17 1   
    25    17    18 1   
    26    17    33 1   
    27    17    34 1   
    28    18    19 ar  
    29    18    23 ar  
    30    19    20 ar  
    31    19    35 1   
    32    20    21 ar  
    33    20    36 1   
    34    21    22 ar  
    35    21    37 1   
    36    22    23 ar  
    37    22    24 ar  
    38    23    27 ar  
    39    24    25 ar  
    40    24    38 1   
    41    25    26 ar  
    42    25    39 1   
    43    26    27 ar  
    44    26    40 1   
    45    27    41 1   
@<TRIPOS>SUBSTRUCTURE
     1 3RY         1 TEMP              0 ****  ****    0 ROOT
