@<TRIPOS>MOLECULE
molecule
   42    45     1     0     0
SMALL
bcc


@<TRIPOS>ATOM
      1 O8           0.0000     0.0000     0.0000 o          1 3RY      -0.834800
      2 C7           1.3470     0.0000     0.0000 c          1 3RY       0.896200
      3 O1           1.9550     0.0000     1.0520 o          1 3RY      -0.834800
      4 C5           2.0840    -0.0010    -1.2760 ca         1 3RY      -0.138600
      5 C4           3.4880    -0.0100    -1.2820 ca         1 3RY       0.118600
      6 C3           4.1710    -0.0120    -2.4910 ca         1 3RY      -0.171000
      7 C2           3.4700    -0.0030    -3.6810 ca         1 3RY      -0.134000
      8 C1           2.0840     0.0050    -3.6800 ca         1 3RY      -0.174000
      9 C6           1.3900     0.0000    -2.4880 ca         1 3RY      -0.082000
     10 N11          4.1920    -0.0170    -0.0830 nu         1 3RY      -0.586600
     11 C13          5.5430     0.1350    -0.0870 ce         1 3RY       0.714500
     12 N14          6.3180     0.3970    -1.1100 nf         1 3RY      -0.788100
     13 C15          7.6110     0.4950    -0.8260 c          1 3RY       0.697700
     14 S17          6.6520     0.0320     1.2940 sx         1 3RY       0.113400
     15 O18          8.4410     0.7360    -1.6890 o          1 3RY      -0.553100
     16 C16          7.9760     0.3080     0.5080 ce         1 3RY      -0.487400
     17 C19          9.3690     0.3680     1.0800 c3         1 3RY       0.020100
     18 C21         10.0130    -0.9890     0.9780 ca         1 3RY      -0.071300
     19 C22         10.7690    -1.3080    -0.1080 ca         1 3RY      -0.104000
     20 C23         11.3780    -2.5570    -0.2170 ca         1 3RY      -0.125000
     21 C24         11.2350    -3.4940     0.7590 ca         1 3RY      -0.121000
     22 C25         10.4630    -3.2020     1.8960 ca         1 3RY      -0.036000
     23 C26          9.8430    -1.9310     2.0070 ca         1 3RY      -0.030000
     24 C39         10.2920    -4.1440     2.9250 ca         1 3RY      -0.118000
     25 C38          9.5370    -3.8240     4.0110 ca         1 3RY      -0.129000
     26 C37          8.9280    -2.5760     4.1210 ca         1 3RY      -0.121000
     27 C36          9.0750    -1.6370     3.1460 ca         1 3RY      -0.121000
     28 H2           5.2540    -0.0180    -2.5020 ha         1 3RY       0.196000
     29 H3           4.0070    -0.0020    -4.6220 ha         1 3RY       0.111000
     30 H4           1.5440     0.0090    -4.6190 ha         1 3RY       0.106000
     31 H5           0.3060     0.0070    -2.4920 ha         1 3RY       0.154000
     32 H6           3.7080    -0.1700     0.7790 hn         1 3RY       0.517800
     33 H7           9.3200     0.6680     2.1200 hc         1 3RY       0.063700
     34 H8           9.9570     1.0890     0.5250 hc         1 3RY       0.063700
     35 H9          10.8990    -0.5800    -0.8990 ha         1 3RY       0.149000
     36 H10         11.9740    -2.7850    -1.0930 ha         1 3RY       0.127000
     37 H11         11.7150    -4.4600     0.6610 ha         1 3RY       0.126000
     38 H12         10.7590    -5.1190     2.8530 ha         1 3RY       0.127000
     39 H13          9.4040    -4.5540     4.8010 ha         1 3RY       0.123000
     40 H14          8.3320    -2.3480     4.9960 ha         1 3RY       0.131000
     41 H15          8.5960    -0.6700     3.2450 ha         1 3RY       0.140000
     42 H16          6.4300    -0.2100     2.5800 hs         1 3RY       0.064000
@<TRIPOS>BOND
     1     3     2 1   
     2     1     2 1   
     3     2     4 1   
     4    20    21 ar  
     5    20    19 ar  
     6    21    22 ar  
     7    14    11 1   
     8    14    16 2   
     9     4     9 ar  
    10     4     5 ar  
    11    10    11 1   
    12    10     5 1   
    13    19    18 ar  
    14     9     8 ar  
    15    11    12 2   
    16     5     6 ar  
    17    22    24 ar  
    18    22    23 ar  
    19    18    23 ar  
    20    18    17 1   
    21    16    17 1   
    22    16    13 1   
    23    24    25 ar  
    24    12    13 1   
    25     8     7 ar  
    26    23    27 ar  
    27     6     7 ar  
    28    13    15 2   
    29    25    26 ar  
    30    27    26 ar  
    31     6    28 1   
    32     7    29 1   
    33     8    30 1   
    34     9    31 1   
    35    10    32 1   
    36    17    33 1   
    37    17    34 1   
    38    19    35 1   
    39    20    36 1   
    40    21    37 1   
    41    24    38 1   
    42    25    39 1   
    43    26    40 1   
    44    27    41 1   
    45    14    42 1   
@<TRIPOS>SUBSTRUCTURE
     1 3RY         1 TEMP              0 ****  ****    0 ROOT
