@<TRIPOS>MOLECULE
3RZ
   32    34     1     0     0
SMALL
bcc


@<TRIPOS>ATOM
      1 C1           0.0000     0.0000     0.0000 c3         1 3RZ      -0.035400
      2 N2           2.4340     0.0000     0.0000 nb         1 3RZ      -0.634000
      3 C3           3.6300     0.0000     0.5740 ca         1 3RZ       0.553200
      4 N4           4.7790     0.0010    -0.1860 nv         1 3RZ      -0.651500
      5 C5           3.6940    -0.0020     1.9880 ca         1 3RZ      -0.300600
      6 C6           2.4770    -0.0020     2.7110 ca         1 3RZ       0.444600
      7 C7           2.5130    -0.0040     4.1250 ca         1 3RZ      -0.205900
      8 N8           1.3240    -0.0020     2.0320 nb         1 3RZ      -0.567000
      9 C9           1.3240    -0.0010     0.7190 ca         1 3RZ       0.604300
     10 C10          4.9250    -0.0020     4.0420 ca         1 3RZ      -0.125000
     11 C11          3.7440    -0.0040     4.7700 ca         1 3RZ      -0.052000
     12 C12          4.9130    -0.0010     2.6770 ca         1 3RZ      -0.028000
     13 O14          0.1890    -0.0040     4.3300 o          1 3RZ      -0.592100
     14 N15          1.3070    -0.0060     6.2510 ns         1 3RZ      -0.077400
     15 C16          0.1180    -0.0060     6.9910 cc         1 3RZ       0.345200
     16 C17         -1.1830    -0.0120     6.4630 cc         1 3RZ      -0.328300
     17 C18         -2.0520    -0.0100     7.4990 cd         1 3RZ      -0.260300
     18 N19         -1.3340    -0.0050     8.6410 na         1 3RZ       0.454400
     19 N20          0.0250    -0.0080     8.3000 nd         1 3RZ      -0.714800
     20 H1          -0.5610     0.8840     0.2780 hc         1 3RZ       0.020033
     21 H1A         -0.5610    -0.8850     0.2750 hc         1 3RZ       0.020033
     22 H1B          0.1700     0.0020    -1.0700 hc         1 3RZ       0.020033
     23 HN4          5.1840     0.8680    -0.4800 hn         1 3RZ       0.281800
     24 HN4A         5.1840    -0.8650    -0.4820 hn         1 3RZ       0.281800
     25 H10          5.8730    -0.0030     4.5660 ha         1 3RZ       0.108000
     26 H11          3.7820    -0.0040     5.8530 ha         1 3RZ       0.105000
     27 H12          5.8460    -0.0000     2.1260 ha         1 3RZ       0.112000
     28 HN15         2.1900    -0.0040     6.7220 hn         1 3RZ       0.170500
     29 H17         -1.4440    -0.0160     5.4110 ha         1 3RZ       0.188000
     30 H18         -3.1330    -0.0120     7.4240 h4         1 3RZ       0.143000
     31 HN19        -1.7070    -0.0040     9.5700 hn         1 3RZ       0.144700
     32 C13          1.2630    -0.0050     4.9040 c          1 3RZ       0.575700
@<TRIPOS>BOND
     1     1     9 1   
     2     1    20 1   
     3     1    21 1   
     4     1    22 1   
     5     2     3 ar  
     6     2     9 ar  
     7     3     4 1   
     8     3     5 ar  
     9     4    23 1   
    10     4    24 1   
    11     5     6 ar  
    12     5    12 ar  
    13     6     7 ar  
    14     6     8 ar  
    15     7    11 ar  
    16     7    32 1   
    17     8     9 ar  
    18    10    11 ar  
    19    10    12 ar  
    20    10    25 1   
    21    11    26 1   
    22    12    27 1   
    23    13    32 2   
    24    14    15 1   
    25    14    28 1   
    26    14    32 1   
    27    15    16 1   
    28    15    19 2   
    29    16    17 2   
    30    16    29 1   
    31    17    18 1   
    32    17    30 1   
    33    18    19 1   
    34    18    31 1   
@<TRIPOS>SUBSTRUCTURE
     1 3RZ         1 TEMP              0 ****  ****    0 ROOT
