@<TRIPOS>MOLECULE
3S0
   48    49     1     0     0
SMALL
bcc


@<TRIPOS>ATOM
      1 OBD         2.2580    0.1360   -0.8800 o         1 3S0     -0.630000
      2 CBB         2.5630    1.0280   -1.6940 c         1 3S0      0.724100
      3 NBC         3.1940    2.2280   -1.4580 n         1 3S0     -0.548000
      4 OBA         2.1540    0.8600   -3.0130 os        1 3S0     -0.452900
      5 CAZ         1.3270   -0.2640   -3.3040 c3        1 3S0      0.146400
      6 CAT         2.1240   -1.4130   -3.9350 c3        1 3S0     -0.167000
      7 CAS         3.1710   -1.9070   -2.9670 ce        1 3S0      0.389300
      8 CAW         2.6910   -3.0190   -2.0740 c         1 3S0      0.559800
      9 OAX         2.3920   -4.1450   -2.4690 o         1 3S0     -0.491000
     10 OAY         2.5450   -2.8050   -0.7480 oh        1 3S0     -0.559100
     11 NAR         4.3880   -1.4960   -2.8570 n2        1 3S0     -0.570900
     12 CAU         2.6750   -1.0450   -5.3030 c3        1 3S0     -0.000300
     13 SAV         4.4250   -0.7970   -5.4600 ss        1 3S0     -0.339200
     14 CB          4.8730   -0.4710   -3.7390 c3        1 3S0      0.186600
     15 CA          6.3770   -0.2140   -3.6550 c3        1 3S0     -0.035500
     16 C           6.6720    0.8510   -2.4780 c         1 3S0      0.952600
     17 OXT         7.7450    0.6670   -1.8570 o         1 3S0     -0.770800
     18 O           5.8090    1.7400   -2.3330 o         1 3S0     -0.770800
     19 N           7.2250   -1.4210   -3.4250 n4        1 3S0     -0.635800
     20 CAJ         7.7200   -2.1010   -4.6510 c         1 3S0      0.452800
     21 OAK         8.2020   -1.4260   -5.5520 o         1 3S0     -0.416100
     22 CAF         7.6010   -3.5950   -4.6650 ce        1 3S0      0.258300
     23 NAG         7.2900   -4.3030   -5.7290 n2        1 3S0     -0.325200
     24 OAH         7.0250   -3.6450   -6.8210 os        1 3S0     -0.156300
     25 CAI         6.6390   -4.4800   -7.9500 c3        1 3S0      0.129700
     26 CAE         7.8820   -4.2930   -3.4240 cc        1 3S0      0.154400
     27 CAD         7.5550   -5.5510   -2.9470 cd        1 3S0     -0.159300
     28 OAA         8.6850   -3.6170   -2.4830 os        1 3S0     -0.393800
     29 CAB         8.8380   -4.4890   -1.4050 cc        1 3S0      0.287600
     30 CAC         8.1710   -5.6730   -1.6450 cd        1 3S0     -0.266300
     31 HBC         3.8080    2.2130   -0.6680 hn        1 3S0      0.326000
     32 HKL         2.7540   -1.8820   -0.5160 ho        1 3S0      0.475000
     33 HBM         0.5840    0.1350   -4.0480 h1        1 3S0      0.082200
     34 HAZ         0.7980   -0.6290   -2.3830 h1        1 3S0      0.082200
     35 H1          1.3820   -2.2560   -4.0880 hc        1 3S0      0.100700
     36 HBL         2.4400   -1.8620   -6.0320 h1        1 3S0      0.085200
     37 HAU         2.1710   -0.1110   -5.6620 h1        1 3S0      0.085200
     38 HB          4.3940    0.5280   -3.4670 h2        1 3S0      0.157700
     39 HA          6.7150    0.2790   -4.6130 hx        1 3S0      0.124700
     40 H           8.0520   -1.0700   -2.8760 hn        1 3S0      0.485300
     41 HAK         5.6990   -5.0330   -7.7190 h1        1 3S0      0.065700
     42 HAI         6.4780   -3.7110   -8.7460 h1        1 3S0      0.065700
     43 HAJ         7.4650   -5.1790   -8.2180 h1        1 3S0      0.065700
     44 HAD         6.9460   -6.3050   -3.4420 ha        1 3S0      0.182000
     45 HAB         9.4370   -4.0840   -0.5910 h4        1 3S0      0.071100
     46 HAC         8.1050   -6.5410   -0.9930 ha        1 3S0      0.179000
     47 HBC3        3.5900    2.6730   -2.2620 hn        1 3S0      0.326000
     48 H2          6.7360   -2.0960   -2.8270 hn        1 3S0      0.485300
@<TRIPOS>BOND
     1    1    2 2   
     2    2    3 1   
     3    2    4 1   
     4    3   31 1   
     5    3   47 1   
     6    4    5 1   
     7    5    6 1   
     8    5   33 1   
     9    5   34 1   
    10    6    7 1   
    11    6   12 1   
    12    6   35 1   
    13    7    8 1   
    14    7   11 2   
    15    8    9 2   
    16    8   10 1   
    17   10   32 1   
    18   11   14 1   
    19   12   13 1   
    20   12   36 1   
    21   12   37 1   
    22   13   14 1   
    23   14   15 1   
    24   14   38 1   
    25   15   16 1   
    26   15   19 1   
    27   15   39 1   
    28   16   17 1   
    29   16   18 1   
    30   19   20 1   
    31   19   40 1   
    32   19   48 1   
    33   20   21 2   
    34   20   22 1   
    35   22   23 2   
    36   22   26 1   
    37   23   24 1   
    38   24   25 1   
    39   25   41 1   
    40   25   42 1   
    41   25   43 1   
    42   26   27 2   
    43   26   28 1   
    44   27   30 1   
    45   27   44 1   
    46   28   29 1   
    47   29   30 2   
    48   29   45 1   
    49   30   46 1   
@<TRIPOS>SUBSTRUCTURE
     1 3S0         1 TEMP              0 ****  ****    0 ROOT
