@<TRIPOS>MOLECULE
molecule
   32    34     1     0     0
SMALL
bcc


@<TRIPOS>ATOM
      1 C5           0.0000     0.0000     0.0000 ca         1 3S1      -0.130000
      2 C4           1.3830     0.0000     0.0000 ca         1 3S1      -0.126000
      3 C6          -0.6930     0.0050     1.1930 ca         1 3S1      -0.114000
      4 C9          -0.4080    -0.9190     4.6810 ca         1 3S1      -0.152000
      5 C10         -1.0710    -0.9290     5.8730 ca         1 3S1      -0.057000
      6 C3           2.0800     0.0000     1.1950 ca         1 3S1      -0.102000
      7 C16         -1.7470     0.9380     3.8960 ca         1 3S1      -0.128000
      8 C8          -0.7350     0.0110     3.6870 cp         1 3S1      -0.004000
      9 C7           0.0040     0.0050     2.4000 cp         1 3S1      -0.049000
     10 C11         -2.0920    -0.0060     6.1070 ca         1 3S1      -0.161600
     11 C15         -2.4350     0.9340     5.1080 ca         1 3S1       0.002200
     12 C2           1.3970    -0.0000     2.3950 ca         1 3S1      -0.072300
     13 C14         -3.5110     1.8880     5.3900 cc         1 3S1      -0.208200
     14 C13         -4.1410     1.8390     6.5750 cd         1 3S1      -0.006400
     15 C12         -2.8320     0.0230     7.3730 c          1 3S1       0.707100
     16 C1           2.1580    -0.0010     3.6950 c3         1 3S1       0.181700
     17 N1          -3.8160     0.9300     7.5390 ns         1 3S1      -0.437100
     18 O2          -2.5690    -0.7700     8.2590 o          1 3S1      -0.638500
     19 O1           3.5620    -0.0010     3.4270 oh         1 3S1      -0.613800
     20 H5          -0.5410     0.0000    -0.9390 ha         1 3S1       0.131000
     21 H4           1.9230    -0.0020    -0.9390 ha         1 3S1       0.131000
     22 H6          -1.7760     0.0050     1.1920 ha         1 3S1       0.135000
     23 H10         -0.8080    -1.6530     6.6350 ha         1 3S1       0.156000
     24 H3           3.1630    -0.0020     1.1890 ha         1 3S1       0.155000
     25 H16         -1.9990     1.6570     3.1260 ha         1 3S1       0.143000
     26 H14         -3.7970     2.6240     4.6480 ha         1 3S1       0.150000
     27 H13         -4.9420     2.5420     6.7690 h4         1 3S1       0.149000
     28 H1           1.8990    -0.8860     4.2640 h1         1 3S1       0.038200
     29 H1A          1.8990     0.8840     4.2650 h1         1 3S1       0.038200
     30 HO1          4.0370     0.0950     4.2360 ho         1 3S1       0.406000
     31 H141        -4.3210     0.9410     8.4030 hn         1 3S1       0.334500
     32 H9           0.3850    -1.6360     4.5030 ha         1 3S1       0.143000
@<TRIPOS>BOND
     1     1    20 1
     2     2     1 ar
     3     2    21 1
     4     3     1 ar
     5     3    22 1
     6     4    32 1
     7     5     4 ar
     8     5    23 1
     9     6     2 ar
    10     6    24 1
    11     7     8 ar
    12     7    25 1
    13     8     4 ar
    14     8     9 1
    15     9     3 ar
    16    10     5 ar
    17    11     7 ar
    18    11    10 ar
    19    12     6 ar
    20    12     9 ar
    21    13    11 1
    22    13    26 1
    23    14    13 2
    24    14    17 1
    25    14    27 1
    26    15    10 1
    27    15    18 2
    28    16    12 1
    29    16    19 1
    30    16    28 1
    31    16    29 1
    32    17    15 1
    33    17    31 1
    34    19    30 1
@<TRIPOS>SUBSTRUCTURE
     1 3S1         1 TEMP              0 ****  ****    0 ROOT
