@<TRIPOS>MOLECULE
molecule
   42    42     1     0     0
SMALL
bcc


@<TRIPOS>ATOM
      1 C4           0.0000     0.0000     0.0000 c3         1 3S2      -0.080400
      2 C5           1.5300     0.0000     0.0000 c3         1 3S2      -0.100400
      3 C6          -0.5090     0.0000     1.4430 c3         1 3S2       0.155800
      4 C7           2.0400     0.0000    -1.4420 c3         1 3S2       0.097000
      5 C8           6.7310    -1.2520    -3.6480 c          1 3S2       0.571900
      6 C10          6.8900    -0.0280    -2.7830 c3         1 3S2      -0.041300
      7 N12         -1.9780    -0.0000     1.4430 n7         1 3S2      -0.820200
      8 C1          -2.5050    -0.0000     2.8150 c3         1 3S2       0.147100
      9 C2           7.9280    -0.6390    -0.6820 c3         1 3S2      -0.111400
     10 C3           6.5260    -0.0210    -0.4180 c3         1 3S2       0.144000
     11 C9           8.2650    -0.0580    -2.0810 c3         1 3S2       0.270500
     12 C11          4.1790     0.0000    -2.6100 c          1 3S2       0.844100
     13 N13          3.5040     0.0000    -1.4430 ns         1 3S2      -0.568900
     14 N14          9.1930    -0.9360    -2.7970 n7         1 3S2      -0.925100
     15 N15          5.8610    -0.0210    -1.7330 n          1 3S2      -0.653800
     16 O16         10.9670     0.7570    -3.0780 o          1 3S2      -0.728533
     17 O17          6.6420    -1.1350    -4.8470 o          1 3S2      -0.536100
     18 O18          3.5710     0.0000    -3.6630 o          1 3S2      -0.524100
     19 O19         11.2840    -0.7910    -1.3280 o          1 3S2      -0.728533
     20 O20         11.4410    -1.6580    -3.5150 o          1 3S2      -0.728533
     21 S21         10.8180    -0.6210    -2.7680 s6         1 3S2       1.446700
     22 H4          -0.3610     0.8850    -0.5110 hc         1 3S2       0.051200
     23 H4A         -0.3610    -0.8850    -0.5110 hc         1 3S2       0.051200
     24 H5           1.8910     0.8840     0.5110 hc         1 3S2       0.048700
     25 H5A          1.8910    -0.8850     0.5110 hc         1 3S2       0.048700
     26 H6          -0.1480     0.8850     1.9540 h1         1 3S2       0.032700
     27 H6A         -0.1480    -0.8850     1.9540 h1         1 3S2       0.032700
     28 H7           1.6790     0.8850    -1.9530 h1         1 3S2       0.051700
     29 H7A          1.6790    -0.8840    -1.9530 h1         1 3S2       0.051700
     30 H8           6.6460    -2.2300    -3.1920 h4         1 3S2      -0.014800
     31 H10          6.8060     0.8680    -3.3840 h1         1 3S2       0.063700
     32 HN12        -2.3120     0.8090     0.9580 hn         1 3S2       0.350800
     33 H1          -3.5880    -0.0040     2.7860 h1         1 3S2       0.029367
     34 H1A         -2.1600     0.8860     3.3350 h1         1 3S2       0.029367
     35 H1B         -2.1550    -0.8830     3.3360 h1         1 3S2       0.029367
     36 H2           8.6440    -0.3020     0.0580 hc         1 3S2       0.068700
     37 H2A          7.8720    -1.7200    -0.7170 hc         1 3S2       0.068700
     38 H3           6.6260     0.9930    -0.0480 h1         1 3S2       0.014200
     39 H3A          5.9720    -0.6320     0.2840 h1         1 3S2       0.014200
     40 H9           8.6670     0.9440    -1.9900 h1         1 3S2       0.092700
     41 HN13         4.0050     0.0200    -0.5760 hn         1 3S2       0.341500
     42 HN14         8.8480    -1.7460    -3.2740 hn         1 3S2       0.414800
@<TRIPOS>BOND
     1     2     1 1
     2     1     3 1
     3     1    22 1
     4     1    23 1
     5     4     2 1
     6     2    24 1
     7     2    25 1
     8     3     7 1
     9     3    26 1
    10     3    27 1
    11     4    13 1
    12     4    28 1
    13     4    29 1
    14    17     5 2
    15     5     6 1
    16     5    30 1
    17    15     6 1
    18    11     6 1
    19     6    31 1
    20     7     8 1
    21     7    32 1
    22     8    33 1
    23     8    34 1
    24     8    35 1
    25     9    10 1
    26     9    11 1
    27     9    36 1
    28     9    37 1
    29    10    15 1
    30    10    38 1
    31    10    39 1
    32    14    11 1
    33    11    40 1
    34    13    12 1
    35    12    15 1
    36    12    18 2
    37    13    41 1
    38    21    14 1
    39    14    42 1
    40    16    21 1
    41    21    19 1
    42    21    20 1
@<TRIPOS>SUBSTRUCTURE
     1 3S2         1 TEMP              0 ****  ****    0 ROOT
