@<TRIPOS>MOLECULE
3S2
   45    44     1     0     0
SMALL
bcc


@<TRIPOS>ATOM
      1 C4          0.0450    0.1010    0.2060 c3        1 3S2     -0.107400
      2 C5          1.5100   -0.1470    0.5270 c3        1 3S2     -0.104400
      3 C6         -0.7660    0.1160    1.4990 c3        1 3S2      0.099800
      4 C7          2.3040   -0.1520   -0.7760 c3        1 3S2      0.109800
      5 C8          6.5940   -1.6660   -4.0980 c         1 3S2      0.557900
      6 C10         6.6570   -0.4850   -3.1310 c3        1 3S2     -0.076300
      7 N12        -2.2230    0.3590    1.2690 n4        1 3S2     -0.757000
      8 C1         -2.9910    0.3700    2.5390 c3        1 3S2      0.076100
      9 C2          8.1230   -0.7960   -1.1710 c3        1 3S2     -0.106400
     10 C3          6.6580   -0.8200   -0.7210 c3        1 3S2      0.065000
     11 C9          8.1130   -0.1980   -2.5960 c3        1 3S2      0.180500
     12 C11         4.5230   -0.3360   -1.9370 c         1 3S2      0.640100
     13 N13         3.7640   -0.3740   -0.5770 n4        1 3S2     -0.670800
     14 N14         9.2170   -0.6210   -3.4160 n3        1 3S2     -0.960800
     15 N15         5.8360   -0.6930   -1.9220 n         1 3S2     -0.406800
     16 O16        11.5220    1.2070   -3.4950 o         1 3S2     -0.573733
     17 O17         7.2260   -1.6300   -5.1480 o         1 3S2     -0.460100
     18 O18         3.8100   -0.0480   -2.9020 o         1 3S2     -0.484100
     19 O19        10.6440    0.8090   -1.3640 o         1 3S2     -0.573733
     20 O20        11.9660   -0.8280   -2.3770 o         1 3S2     -0.693533
     21 S21        11.3850    0.3910   -2.4280 s4        1 3S2      1.814000
     22 H4         -0.3300   -0.7060   -0.4800 hc        1 3S2      0.083700
     23 H4A        -0.0590    1.0830   -0.3310 hc        1 3S2      0.083700
     24 H5          1.8870    0.6570    1.2140 hc        1 3S2      0.077700
     25 H5A         1.6190   -1.1310    1.0570 hc        1 3S2      0.077700
     26 H6         -0.6640   -0.8740    2.0320 hx        1 3S2      0.115700
     27 H6A        -0.3880    0.9290    2.1850 hx        1 3S2      0.115700
     28 H7          2.1790    0.8350   -1.3150 hx        1 3S2      0.126700
     29 H7A         1.9270   -0.9650   -1.4650 hx        1 3S2      0.126700
     30 H8          5.9490   -2.5230   -3.8120 h4        1 3S2      0.031200
     31 H10         6.2790    0.4230   -3.6910 h1        1 3S2      0.120700
     32 HN12       -2.3450    1.2610    0.7900 hn        1 3S2      0.460800
     33 H1         -4.0770    0.5550    2.3080 hx        1 3S2      0.121033
     34 H1A        -2.8820   -0.6220    3.0570 hx        1 3S2      0.121033
     35 H1B        -2.6060    1.1870    3.2080 hx        1 3S2      0.121033
     36 H2          8.7470   -0.1520   -0.4940 hc        1 3S2      0.116200
     37 H2A         8.5490   -1.8310   -1.1530 hc        1 3S2      0.116200
     38 H3          6.4120   -1.7910   -0.2080 h1        1 3S2      0.061200
     39 H3A         6.4630    0.0330   -0.0120 h1        1 3S2      0.061200
     40 H9          8.2040    0.9290   -2.5050 h1        1 3S2      0.105700
     41 HN13        4.1470    0.3580    0.0300 hn        1 3S2      0.455800
     42 HN14        9.1330   -0.2610   -4.3530 hn        1 3S2      0.407300
     43 H122       -2.5960   -0.3760    0.6530 hn        1 3S2      0.460800
     44 H132        3.9200   -1.2810   -0.1250 hn        1 3S2      0.455800
     45 H142        9.3090   -1.6210   -3.4520 hn        1 3S2      0.407300
@<TRIPOS>BOND
     1    1    2 1   
     2    1    3 1   
     3    1   22 1   
     4    1   23 1   
     5    2    4 1   
     6    2   24 1   
     7    2   25 1   
     8    3    7 1   
     9    3   26 1   
    10    3   27 1   
    11    4   13 1   
    12    4   28 1   
    13    4   29 1   
    14    5    6 1   
    15    5   17 2   
    16    5   30 1   
    17    6   11 1   
    18    6   15 1   
    19    6   31 1   
    20    7    8 1   
    21    7   32 1   
    22    7   43 1   
    23    8   33 1   
    24    8   34 1   
    25    8   35 1   
    26    9   10 1   
    27    9   11 1   
    28    9   36 1   
    29    9   37 1   
    30   10   15 1   
    31   10   38 1   
    32   10   39 1   
    33   11   14 1   
    34   11   40 1   
    35   12   13 1   
    36   12   15 1   
    37   12   18 2   
    38   13   41 1   
    39   13   44 1   
    40   14   42 1   
    41   14   45 1   
    42   16   21 1   
    43   19   21 1   
    44   20   21 2   
@<TRIPOS>SUBSTRUCTURE
     1 3S2         1 TEMP              0 ****  ****    0 ROOT
