@<TRIPOS>MOLECULE
3S3
   43    44     1     0     0
SMALL
bcc


@<TRIPOS>ATOM
      1 OAK          0.0000     0.0000     0.0000 o          1 3S3      -0.690100
      2 CAI          1.2120     0.0000     0.0000 c          1 3S3       0.528100
      3 CAG          1.9660     0.0000     1.3050 c3         1 3S3      -0.082200
      4 CAF          2.4310     1.3990     1.6160 ca         1 3S3      -0.125300
      5 CAA          3.7380     1.7670     1.3540 ca         1 3S3      -0.099000
      6 CAB          4.1640     3.0510     1.6400 ca         1 3S3      -0.069500
      7 CAC          3.2850     3.9650     2.1880 ca         1 3S3      -0.049000
      8 CAD          1.9780     3.5960     2.4510 ca         1 3S3      -0.069500
      9 CAE          1.5500     2.3150     2.1590 ca         1 3S3      -0.099000
     10 NAH          1.0840    -0.4750     2.3800 nz         1 3S3       0.086400
     11 N            1.8860    -0.0050    -1.1680 ns         1 3S3       0.038100
     12 CA           1.1530    -0.0110    -2.4370 c3         1 3S3      -0.101300
     13 C            0.7940    -1.4290    -2.8030 c          1 3S3       0.971600
     14 O            1.1170    -2.3400    -2.0790 o          1 3S3      -0.872300
     15 OXT          0.1160    -1.6790    -3.9340 o          1 3S3      -0.872300
     16 CB           2.0290     0.5930    -3.5340 c3         1 3S3       0.255600
     17 NAQ          2.4730     1.9200    -3.1280 n2         1 3S3      -0.521900
     18 SAU          1.0700     0.7250    -5.0740 ss         1 3S3      -0.365200
     19 CAT          2.1040     1.8770    -6.0340 c3         1 3S3       0.037700
     20 CAS          2.1950     3.1880    -5.2490 c3         1 3S3      -0.107000
     21 CAY          0.8460     3.9060    -5.3180 c3         1 3S3       0.007900
     22 CAR          2.5500     2.9530    -3.8200 ce         1 3S3       0.358300
     23 CAV          3.0760     4.1410    -3.1060 c          1 3S3       0.880300
     24 OAW          3.4300     4.0470    -1.8110 o          1 3S3      -0.887800
     25 OAX          3.1890     5.1990    -3.6920 o          1 3S3      -0.887800
     26 HAG          2.8250    -0.6560     1.2260 hx         1 3S3       0.079700
     27 HAA          4.4430     1.0320     0.9840 ha         1 3S3       0.118000
     28 HAB          5.1940     3.3330     1.4580 ha         1 3S3       0.109500
     29 HAC          3.6230     4.9670     2.4250 ha         1 3S3       0.106000
     30 HAD          1.2830     4.3190     2.8610 ha         1 3S3       0.109500
     31 HAE          0.5050     2.4390     2.4140 ha         1 3S3       0.118000
     32 HBP          1.5120    -0.2950     3.2660 hn         1 3S3       0.218467
     33 HAH          0.2080     0.0070     2.3290 hn         1 3S3       0.218467
     34 HBO          0.9310    -1.4580     2.2760 hn         1 3S3       0.218467
     35 H            2.8860    -0.0450    -1.1680 hn         1 3S3       0.162500
     36 HA           0.2480     0.5750    -2.3330 h1         1 3S3       0.082700
     37 HB           2.8930    -0.0390    -3.7030 h2         1 3S3       0.047700
     38 HBL          1.6480     2.0600    -6.9990 h1         1 3S3       0.035200
     39 HAT          3.0940     1.4580    -6.1630 h1         1 3S3       0.035200
     40 HAS          2.9560     3.8140    -5.7000 hc         1 3S3       0.053700
     41 HBN          0.4100     3.7620    -6.2990 hc         1 3S3       0.008367
     42 HBM          0.9910     4.9650    -5.1390 hc         1 3S3       0.008367
     43 HAY          0.1820     3.5010    -4.5640 hc         1 3S3       0.008367
@<TRIPOS>BOND
     1     1     2 2   
     2     2     3 1   
     3     2    11 1   
     4     3     4 1   
     5     3    10 1   
     6     3    26 1   
     7     4     5 ar  
     8     4     9 ar  
     9     5     6 ar  
    10     5    27 1   
    11     6     7 ar  
    12     6    28 1   
    13     7     8 ar  
    14     7    29 1   
    15     8     9 ar  
    16     8    30 1   
    17     9    31 1   
    18    10    32 1   
    19    10    33 1   
    20    10    34 1   
    21    11    12 1   
    22    11    35 1   
    23    12    13 1   
    24    12    16 1   
    25    12    36 1   
    26    13    14 1   
    27    13    15 1   
    28    16    17 1   
    29    16    18 1   
    30    16    37 1   
    31    17    22 2   
    32    18    19 1   
    33    19    20 1   
    34    19    38 1   
    35    19    39 1   
    36    20    21 1   
    37    20    22 1   
    38    20    40 1   
    39    21    41 1   
    40    21    42 1   
    41    21    43 1   
    42    22    23 1   
    43    23    24 1   
    44    23    25 1   
@<TRIPOS>SUBSTRUCTURE
     1 3S3         1 TEMP              0 ****  ****    0 ROOT
