@<TRIPOS>MOLECULE
molecule
   43    44     1     0     0
SMALL
bcc


@<TRIPOS>ATOM
      1 OAK          0.0000     0.0000     0.0000 o          1 3S3      -0.639100
      2 CAI          1.2120     0.0000     0.0000 c          1 3S3       0.646100
      3 CAG          1.9660     0.0000     1.3050 c3         1 3S3       0.078800
      4 CAF          2.4310     1.3990     1.6160 ca         1 3S3      -0.122300
      5 CAA          3.7380     1.7670     1.3540 ca         1 3S3      -0.118500
      6 CAB          4.1640     3.0510     1.6400 ca         1 3S3      -0.102000
      7 CAC          3.2850     3.9650     2.1880 ca         1 3S3      -0.081000
      8 CAD          1.9780     3.5960     2.4510 ca         1 3S3      -0.102000
      9 CAE          1.5500     2.3150     2.1590 ca         1 3S3      -0.118500
     10 NAH          1.0840    -0.4750     2.3800 nz         1 3S3      -0.790600
     11 N            1.8860    -0.0050    -1.1680 ns         1 3S3      -0.445900
     12 CA           1.1530    -0.0110    -2.4370 c3         1 3S3       0.029700
     13 C            0.7940    -1.4290    -2.8030 c          1 3S3       0.881600
     14 O            1.1170    -2.3400    -2.0790 o          1 3S3      -0.825800
     15 OXT          0.1160    -1.6790    -3.9340 o          1 3S3      -0.825800
     16 CB           2.0290     0.5930    -3.5340 c3         1 3S3       0.227600
     17 NAQ          2.4730     1.9200    -3.1280 n2         1 3S3      -0.611900
     18 SAU          1.0700     0.7250    -5.0740 ss         1 3S3      -0.300200
     19 CAT          2.1040     1.8770    -6.0340 c3         1 3S3      -0.024300
     20 CAS          2.1950     3.1880    -5.2490 c3         1 3S3      -0.154000
     21 CAY          0.8460     3.9060    -5.3180 c3         1 3S3      -0.070100
     22 CAR          2.5500     2.9530    -3.8200 ce         1 3S3       0.413300
     23 CAV          3.0760     4.1410    -3.1060 c          1 3S3       0.797300
     24 OAW          3.4300     4.0470    -1.8110 o          1 3S3      -0.835800
     25 OAX          3.1890     5.1990    -3.6920 o          1 3S3      -0.835800
     26 HAG          2.8250    -0.6560     1.2260 hx         1 3S3       0.106700
     27 HAA          4.4430     1.0320     0.9840 ha         1 3S3       0.141000
     28 HAB          5.1940     3.3330     1.4580 ha         1 3S3       0.140000
     29 HAC          3.6230     4.9670     2.4250 ha         1 3S3       0.138000
     30 HAD          1.2830     4.3190     2.8610 ha         1 3S3       0.140000
     31 HAE          0.5050     2.4390     2.4140 ha         1 3S3       0.141000
     32 HBP          1.5120    -0.2950     3.2660 hn         1 3S3       0.449800
     33 HAH          0.2080     0.0070     2.3290 hn         1 3S3       0.449800
     34 HBO          0.9310    -1.4580     2.2760 hn         1 3S3       0.449800
     35 H            2.8860    -0.0450    -1.1680 hn         1 3S3       0.320500
     36 HA           0.2480     0.5750    -2.3330 h1         1 3S3       0.098700
     37 HB           2.8930    -0.0390    -3.7030 h2         1 3S3       0.071700
     38 HBL          1.6480     2.0600    -6.9990 h1         1 3S3       0.052700
     39 HAT          3.0940     1.4580    -6.1630 h1         1 3S3       0.052700
     40 HAS          2.9560     3.8140    -5.7000 hc         1 3S3       0.074700
     41 HBN          0.4100     3.7620    -6.2990 hc         1 3S3       0.034700
     42 HBM          0.9910     4.9650    -5.1390 hc         1 3S3       0.034700
     43 HAY          0.1820     3.5010    -4.5640 hc         1 3S3       0.034700
@<TRIPOS>BOND
     1    21    20 1
     2    20    19 1
     3    20    22 1
     4    25    23 1
     5     7     6 ar
     6     7     8 ar
     7    19    18 1
     8     6     5 ar
     9     8     9 ar
    10    18    16 1
    11    23    22 1
    12    23    24 1
    13    22    17 2
    14     5     4 ar
    15     9     4 ar
    16    17    16 1
    17     4     3 1
    18    14    13 1
    19    16    12 1
    20    13    15 1
    21    13    12 1
    22    11    12 1
    23    11     2 1
    24     3     2 1
    25     3    10 1
    26     2     1 2
    27     3    26 1
    28     5    27 1
    29     6    28 1
    30     7    29 1
    31     8    30 1
    32     9    31 1
    33    10    32 1
    34    10    33 1
    35    10    34 1
    36    11    35 1
    37    12    36 1
    38    16    37 1
    39    19    38 1
    40    19    39 1
    41    20    40 1
    42    21    41 1
    43    21    42 1
    44    21    43 1
@<TRIPOS>SUBSTRUCTURE
     1 3S3         1 TEMP              0 ****  ****    0 ROOT
