@<TRIPOS>MOLECULE
molecule
   24    23     1     0     0
SMALL
bcc


@<TRIPOS>ATOM
      1 C            1.5310     0.0000     0.0000 c3         1 3S4      -0.107100
      2 O           -2.5160     0.0700     2.7890 oh         1 3S4      -0.644800
      3 P            0.1330    -2.6360    -0.4190 p5         1 3S4       1.227900
      4 C1           0.0000     0.0000     0.0000 c3         1 3S4       0.257800
      5 O1          -0.2350     2.3040    -2.9370 o          1 3S4      -0.866800
      6 C2          -0.5100     0.0000     1.4420 c3         1 3S4      -0.111400
      7 O2           0.5580     0.2730    -2.5810 o          1 3S4      -0.866800
      8 C3          -2.0400     0.0310     1.4420 c3         1 3S4       0.138400
      9 O3          -0.4750    -1.1670    -0.6730 os         1 3S4      -0.553200
     10 C4          -0.5100     1.2490    -0.7210 c3         1 3S4      -0.175400
     11 O4           1.5960    -2.6100    -0.6440 o          1 3S4      -0.935500
     12 C5          -0.0240     1.2390    -2.1480 c          1 3S4       0.891600
     13 O5          -0.1690    -3.0870     1.0960 o          1 3S4      -0.935500
     14 O6          -0.5480    -3.6830    -1.4360 o          1 3S4      -0.935500
     15 H            1.8920    -0.6560     0.7830 hc         1 3S4       0.035367
     16 HA           1.8920     1.0060     0.1760 hc         1 3S4       0.035367
     17 HB           1.8920    -0.3500    -0.9590 hc         1 3S4       0.035367
     18 HO          -3.4580     0.0850     2.7890 ho         1 3S4       0.350000
     19 H2          -0.1670    -0.8950     1.9460 hc         1 3S4       0.046700
     20 H2A         -0.1310     0.8730     1.9590 hc         1 3S4       0.046700
     21 H3          -2.4190    -0.8570     0.9500 h1         1 3S4       0.030700
     22 H3A         -2.3830     0.9110     0.9120 h1         1 3S4       0.030700
     23 H4          -1.5930     1.2560    -0.7090 hc         1 3S4       0.002700
     24 H4A         -0.1380     2.1330    -0.2190 hc         1 3S4       0.002700
@<TRIPOS>BOND
     1     1     4 1
     2     1    15 1
     3     1    16 1
     4     1    17 1
     5     2     8 1
     6     2    18 1
     7    11     3 1
     8    13     3 1
     9    14     3 1
    10     3     9 1
    11     6     4 1
    12     9     4 1
    13     4    10 1
    14    12     5 1
    15     8     6 1
    16     6    19 1
    17     6    20 1
    18     7    12 1
    19     8    21 1
    20     8    22 1
    21    10    12 1
    22    10    23 1
    23    10    24 1
@<TRIPOS>SUBSTRUCTURE
     1 3S4         1 TEMP              0 ****  ****    0 ROOT
