@<TRIPOS>MOLECULE
3S4
   24    23     1     0     0
SMALL
bcc


@<TRIPOS>ATOM
      1 C           1.5460   -0.2480   -0.1970 c3        1 3S4     -0.113100
      2 O          -2.3240   -0.2000    2.5250 oh        1 3S4     -0.719800
      3 P          -0.4780   -3.0020    0.4210 p5        1 3S4      1.371900
      4 C1          0.0080   -0.2330   -0.2120 c3        1 3S4      0.306800
      5 O1          0.0020    2.9750   -0.7980 o         1 3S4     -0.907300
      6 C2         -0.4620    0.4640    1.0880 c3        1 3S4     -0.143400
      7 O2          0.9730    2.2140   -2.6240 o         1 3S4     -0.907300
      8 C3         -1.9660    0.4140    1.2990 c3        1 3S4      0.172400
      9 O3         -0.5540   -1.4770   -0.4130 os        1 3S4     -0.618200
     10 C4         -0.4260    0.6500   -1.4210 c3        1 3S4     -0.178400
     11 O4          0.9840   -3.2500    0.6780 o         1 3S4     -0.944833
     12 C5          0.2380    2.0120   -1.5990 c         1 3S4      0.901600
     13 O5         -1.2900   -2.7290    1.6700 o         1 3S4     -0.944833
     14 O6         -1.1310   -3.9290   -0.5660 o         1 3S4     -0.944833
     15 H           1.9330   -0.7880    0.6990 hc        1 3S4      0.018367
     16 HA          1.9160   -0.7720   -1.1090 hc        1 3S4      0.018367
     17 HB          1.9310    0.7990   -0.1960 hc        1 3S4      0.018367
     18 HO         -2.0100   -1.1300    2.4640 ho        1 3S4      0.487000
     19 H2          0.0450   -0.0130    1.9660 hc        1 3S4      0.038200
     20 H2A        -0.1310    1.5340    1.0270 hc        1 3S4      0.038200
     21 H3         -2.3910    1.4540    1.3680 h1        1 3S4      0.009200
     22 H3A        -2.4640   -0.1270    0.4500 h1        1 3S4      0.009200
     23 H4         -0.2430    0.0470   -2.3460 hc        1 3S4      0.017700
     24 H4A        -1.5300    0.8210   -1.3360 hc        1 3S4      0.017700
@<TRIPOS>BOND
     1    1    4 1   
     2    1   15 1   
     3    1   16 1   
     4    1   17 1   
     5    2    8 1   
     6    2   18 1   
     7    3    9 1   
     8    3   11 1   
     9    3   13 1   
    10    3   14 1   
    11    4    6 1   
    12    4    9 1   
    13    4   10 1   
    14    5   12 1   
    15    6    8 1   
    16    6   19 1   
    17    6   20 1   
    18    7   12 1   
    19    8   21 1   
    20    8   22 1   
    21   10   12 1   
    22   10   23 1   
    23   10   24 1   
@<TRIPOS>SUBSTRUCTURE
     1 3S4         1 TEMP              0 ****  ****    0 ROOT
