@<TRIPOS>MOLECULE
3S5
   20    17     1     0     0
SMALL
bcc


@<TRIPOS>ATOM
      1 N01         0.9580   -0.0140   -0.3550 n4        1 3S5     -0.901600
      2 C02         2.0370   -0.8880    0.3420 c2        1 3S5      0.734100
      3 N03         2.2900   -0.8090    1.5930 n2        1 3S5     -0.736100
      4 N04         2.5960   -1.7910   -0.5880 nh        1 3S5     -0.881800
      5 C05         2.7050    1.6470   -2.5210 c2        1 3S5     -0.246500
      6 C06         1.6430    1.3870   -3.2750 c2        1 3S5     -0.246500
      7 S07         6.4940   -0.4980   -1.6850 s4        1 3S5      1.807000
      8 O08         7.2160   -1.6260   -1.5870 o         1 3S5     -0.560733
      9 O09         7.0280    0.7020   -1.9650 o         1 3S5     -0.560733
     10 O10         5.1460   -0.5710   -1.4790 o         1 3S5     -0.680533
     11 H1          1.3890    0.5310   -1.1240 hn        1 3S5      0.462467
     12 H2          0.5230    0.6280    0.3070 hn        1 3S5      0.462467
     13 H3          1.7600   -0.2430    2.2170 hn        1 3S5      0.460400
     14 H4          3.0190   -2.5890   -0.1480 hn        1 3S5      0.453300
     15 H5          3.5140    0.9180   -2.3550 ha        1 3S5      0.129750
     16 H6          2.8780    2.6320   -2.0620 ha        1 3S5      0.129750
     17 H7          0.8650    2.1370   -3.4850 ha        1 3S5      0.129750
     18 H8          1.4980    0.4250   -3.7890 ha        1 3S5      0.129750
     19 H013        0.2380   -0.6250   -0.7530 hn        1 3S5      0.462467
     20 H042        3.2110   -1.3520   -1.2550 hn        1 3S5      0.453300
@<TRIPOS>BOND
     1    1    2 1
     2    1   11 1
     3    1   12 1
     4    1   19 1
     5    2    3 2
     6    2    4 1
     7    3   13 1
     8    4   14 1
     9    4   20 1
    10    5    6 2
    11    5   15 1
    12    5   16 1
    13    6   17 1
    14    6   18 1
    15    7    8 1
    16    7    9 1
    17    7   10 2
@<TRIPOS>SUBSTRUCTURE
     1 3S5         1 TEMP              0 ****  ****    0 ROOT
