@<TRIPOS>MOLECULE
molecule
   31    31     1     0     0
SMALL
bcc


@<TRIPOS>ATOM
      1 CAA          0.0000     0.0000     0.0000 c2         1 3S6      -0.215000
      2 CAF          1.3100     0.0000     0.0000 c2         1 3S6      -0.167200
      3 CAH          2.0640     0.0000     1.3050 c3         1 3S6       0.173600
      4 OAI          3.1270    -0.9530     1.2410 os         1 3S6      -0.437600
      5 CAN          3.9080    -1.0320     2.4350 c3         1 3S6       0.306900
      6 OAJ          4.6910     0.1690     2.6040 os         1 3S6      -0.406600
      7 CAL          4.9490    -2.1690     2.3210 c3         1 3S6       0.107100
      8 OAD          5.1700    -2.7730     3.5970 oh         1 3S6      -0.586800
      9 CAM          6.2290    -1.4580     1.8300 c3         1 3S6       0.111100
     10 OAE          6.6320    -1.9740     0.5590 oh         1 3S6      -0.599800
     11 CAO          5.8110     0.0240     1.7030 c3         1 3S6       0.137100
     12 CAK          6.9600     0.9400     2.1300 c3         1 3S6       0.158100
     13 OAC          7.4330     0.5420     3.4180 oh         1 3S6      -0.592800
     14 CAG          6.4630     2.3860     2.1930 c3         1 3S6       0.114400
     15 OAB          7.5620     3.2550     2.4770 oh         1 3S6      -0.620800
     16 H1          -0.5420     0.0000    -0.9380 ha         1 3S6       0.114500
     17 H2          -0.5420     0.0000     0.9380 ha         1 3S6       0.114500
     18 H4           1.8510     0.0000    -0.9380 ha         1 3S6       0.135000
     19 H6           2.4740     0.9870     1.4860 h1         1 3S6       0.037200
     20 H7           1.3900    -0.2640     2.1110 h1         1 3S6       0.037200
     21 H8           3.2730    -1.1910     3.2980 h2         1 3S6       0.085700
     22 H9           4.6250    -2.9060     1.5970 h1         1 3S6       0.073700
     23 H10          4.8600    -3.6630     3.5820 ho         1 3S6       0.406000
     24 H11          7.0230    -1.5650     2.5590 h1         1 3S6       0.084700
     25 H12          7.3920    -2.5200     0.6690 ho         1 3S6       0.406000
     26 H13          5.5060     0.2420     0.6870 h1         1 3S6       0.078700
     27 H14          7.7660     0.8660     1.4110 h1         1 3S6       0.049700
     28 H15          8.3420     0.7780     3.5060 ho         1 3S6       0.410000
     29 H16          6.0240     2.6580     1.2410 h1         1 3S6       0.039700
     30 H17          5.7180     2.4780     2.9740 h1         1 3S6       0.039700
     31 H18          7.2810     4.1520     2.3980 ho         1 3S6       0.407000
@<TRIPOS>BOND
     1     1     2 2
     2     3     2 1
     3     3     4 1
     4    15    14 1
     5    14    12 1
     6     6     5 1
     7     6    11 1
     8     4     5 1
     9    13    12 1
    10     5     7 1
    11    12    11 1
    12    11     9 1
    13     7     9 1
    14     7     8 1
    15     9    10 1
    16     1    16 1
    17     1    17 1
    18     2    18 1
    19     3    19 1
    20     3    20 1
    21     5    21 1
    22     7    22 1
    23     8    23 1
    24     9    24 1
    25    10    25 1
    26    11    26 1
    27    12    27 1
    28    13    28 1
    29    14    29 1
    30    14    30 1
    31    15    31 1
@<TRIPOS>SUBSTRUCTURE
     1 3S6         1 TEMP              0 ****  ****    0 ROOT
