@<TRIPOS>MOLECULE
3S6
   31    31     1     0     0
SMALL
bcc


@<TRIPOS>ATOM
      1 CAA        -0.1600    0.1640    0.3290 c2        1 3S6     -0.226000
      2 CAF         1.0180   -0.4520    0.3700 c2        1 3S6     -0.163200
      3 CAH         2.0300   -0.1830    1.4280 c3        1 3S6      0.164600
      4 OAI         3.0720   -1.1530    1.2680 os        1 3S6     -0.439600
      5 CAN         4.1020   -1.0350    2.2280 c3        1 3S6      0.302900
      6 OAJ         4.7280    0.2140    1.9590 os        1 3S6     -0.437600
      7 CAL         5.1150   -2.1720    1.9670 c3        1 3S6      0.087100
      8 OAD         5.2570   -3.0160    3.0890 oh        1 3S6     -0.586800
      9 CAM         6.4590   -1.4430    1.7420 c3        1 3S6      0.123100
     10 OAE         7.1150   -1.9200    0.5850 oh        1 3S6     -0.591800
     11 CAO         6.0690    0.0270    1.4860 c3        1 3S6      0.151100
     12 CAK         7.0020    1.0120    2.1980 c3        1 3S6      0.142100
     13 OAC         7.1020    0.6400    3.5630 oh        1 3S6     -0.600800
     14 CAG         6.4680    2.4410    2.0540 c3        1 3S6      0.094400
     15 OAB         7.3800    3.2760    2.7490 oh        1 3S6     -0.616800
     16 H1         -0.4720    0.9060    1.0760 ha        1 3S6      0.113500
     17 H2         -0.8930   -0.0340   -0.4630 ha        1 3S6      0.113500
     18 H4          1.3190   -1.1970   -0.3850 ha        1 3S6      0.141000
     19 H6          2.4670    0.8460    1.3140 h1        1 3S6      0.045700
     20 H7          1.5880   -0.2840    2.4560 h1        1 3S6      0.045700
     21 H8          3.7050   -1.0050    3.2770 h2        1 3S6      0.076700
     22 H9          4.8180   -2.7630    1.0580 h1        1 3S6      0.080700
     23 H10         4.4140   -3.4730    3.2020 ho        1 3S6      0.411000
     24 H11         7.1150   -1.5420    2.6500 h1        1 3S6      0.095700
     25 H12         7.4470   -2.8000    0.8010 ho        1 3S6      0.413000
     26 H13         6.0730    0.2510    0.3840 h1        1 3S6      0.079700
     27 H14         8.0230    0.9390    1.7250 h1        1 3S6      0.056700
     28 H15         7.5400    1.3720    4.0170 ho        1 3S6      0.423000
     29 H16         5.4430    2.5130    2.5040 h1        1 3S6      0.045700
     30 H17         6.4280    2.7310    0.9720 h1        1 3S6      0.045700
     31 H18         6.9800    4.1520    2.7900 ho        1 3S6      0.409000
@<TRIPOS>BOND
     1    1    2 2   
     2    1   16 1   
     3    1   17 1   
     4    2    3 1   
     5    2   18 1   
     6    3    4 1   
     7    3   19 1   
     8    3   20 1   
     9    4    5 1   
    10    5    6 1   
    11    5    7 1   
    12    5   21 1   
    13    6   11 1   
    14    7    8 1   
    15    7    9 1   
    16    7   22 1   
    17    8   23 1   
    18    9   10 1   
    19    9   11 1   
    20    9   24 1   
    21   10   25 1   
    22   11   12 1   
    23   11   26 1   
    24   12   13 1   
    25   12   14 1   
    26   12   27 1   
    27   13   28 1   
    28   14   15 1   
    29   14   29 1   
    30   14   30 1   
    31   15   31 1   
@<TRIPOS>SUBSTRUCTURE
     1 3S6         1 TEMP              0 ****  ****    0 ROOT
