@<TRIPOS>MOLECULE
3S9
   24    24     1     0     0
SMALL
bcc


@<TRIPOS>ATOM
      1 N14         -0.8750    -0.0170    -2.4570 n1         1 3S9      -0.353800
      2 C13         -0.4910     0.0010    -1.3880 c1         1 3S9       0.177700
      3 C12          0.0000     0.0000     0.0000 c3         1 3S9       0.223100
      4 N11          1.4650     0.0000     0.0000 ns         1 3S9      -0.214900
      5 C9           2.1380     0.0000     1.1670 c          1 3S9       0.671100
      6 O10          1.5310    -0.0010     2.2190 o          1 3S9      -0.657000
      7 O8           3.4850    -0.0000     1.1670 os         1 3S9      -0.411900
      8 C7           4.1440    -0.0010     2.4610 c3         1 3S9       0.221700
      9 C2           6.3230     1.1970     2.1740 ca         1 3S9      -0.081500
     10 C3           7.6940     1.1990     1.9990 ca         1 3S9      -0.108500
     11 C4           8.3800     0.0020     1.9130 ca         1 3S9      -0.070000
     12 C5           7.6950    -1.1960     2.0020 ca         1 3S9      -0.108500
     13 C6           6.3250    -1.1970     2.1770 ca         1 3S9      -0.081500
     14 C1           5.6380     0.0000     2.2630 ca         1 3S9      -0.085300
     15 H1          -0.1500     1.0330     0.2900 h1         1 3S9       0.038200
     16 H2          -0.4120    -0.6680     0.7460 h1         1 3S9       0.038200
     17 H3           2.0830     0.7570    -0.2170 hn         1 3S9       0.186500
     18 H4           4.0570    -1.0790     2.4000 h1         1 3S9       0.037700
     19 H5           3.4310     0.1960     3.2530 h1         1 3S9       0.037700
     20 H6           5.6670     2.0600     2.1740 ha         1 3S9       0.108500
     21 H7           8.1580     2.0520     1.5190 ha         1 3S9       0.109000
     22 H8           9.4320     0.2050     1.7480 ha         1 3S9       0.106000
     23 H9           8.0140    -2.2260     2.1100 ha         1 3S9       0.109000
     24 H10          5.8640    -2.1480     2.4150 ha         1 3S9       0.108500
@<TRIPOS>BOND
     1     1     2 3   
     2     2     3 1   
     3     3     4 1   
     4     3    15 1   
     5     3    16 1   
     6     4     5 1   
     7     4    17 1   
     8     5     6 2   
     9     5     7 1   
    10     7     8 1   
    11     8    14 1   
    12     8    18 1   
    13     8    19 1   
    14     9    10 ar  
    15     9    14 ar  
    16     9    20 1   
    17    10    11 ar  
    18    10    21 1   
    19    11    12 ar  
    20    11    22 1   
    21    12    13 ar  
    22    12    23 1   
    23    13    14 ar  
    24    13    24 1   
@<TRIPOS>SUBSTRUCTURE
     1 3S9         1 TEMP              0 ****  ****    0 ROOT
