@<TRIPOS>MOLECULE
molecule
   24    24     1     0     0
SMALL
bcc


@<TRIPOS>ATOM
      1 N14         -0.8750    -0.0170    -2.4570 n1         1 3S9      -0.340800
      2 C13         -0.4910     0.0010    -1.3880 c1         1 3S9       0.210700
      3 C12          0.0000     0.0000     0.0000 c3         1 3S9       0.191100
      4 N11          1.4650     0.0000     0.0000 ns         1 3S9      -0.510900
      5 C9           2.1380     0.0000     1.1670 c          1 3S9       0.687100
      6 O10          1.5310    -0.0010     2.2190 o          1 3S9      -0.618000
      7 O8           3.4850    -0.0000     1.1670 os         1 3S9      -0.433900
      8 C7           4.1440    -0.0010     2.4610 c3         1 3S9       0.155700
      9 C2           6.3230     1.1970     2.1740 ca         1 3S9      -0.104500
     10 C3           7.6940     1.1990     1.9990 ca         1 3S9      -0.134500
     11 C4           8.3800     0.0020     1.9130 ca         1 3S9      -0.100000
     12 C5           7.6950    -1.1960     2.0020 ca         1 3S9      -0.134500
     13 C6           6.3250    -1.1970     2.1770 ca         1 3S9      -0.104500
     14 C1           5.6380     0.0000     2.2630 ca         1 3S9      -0.076300
     15 H1          -0.1500     1.0330     0.2900 h1         1 3S9       0.083700
     16 H2          -0.4120    -0.6680     0.7460 h1         1 3S9       0.083700
     17 H3           2.0830     0.7570    -0.2170 hn         1 3S9       0.308500
     18 H4           4.0570    -1.0790     2.4000 h1         1 3S9       0.076200
     19 H5           3.4310     0.1960     3.2530 h1         1 3S9       0.076200
     20 H6           5.6670     2.0600     2.1740 ha         1 3S9       0.136500
     21 H7           8.1580     2.0520     1.5190 ha         1 3S9       0.137500
     22 H8           9.4320     0.2050     1.7480 ha         1 3S9       0.137000
     23 H9           8.0140    -2.2260     2.1100 ha         1 3S9       0.137500
     24 H10          5.8640    -2.1480     2.4150 ha         1 3S9       0.136500
@<TRIPOS>BOND
     1    11    10 ar
     2    11    12 ar
     3    10     9 ar
     4    12    13 ar
     5     3     4 1
     6     3     2 1
     7     4     5 1
     8     9    14 ar
     9    13    14 ar
    10    14     8 1
    11     7     5 1
    12     7     8 1
    13     5     6 2
    14     2     1 3
    15     3    15 1
    16     3    16 1
    17     4    17 1
    18     8    18 1
    19     8    19 1
    20     9    20 1
    21    10    21 1
    22    11    22 1
    23    12    23 1
    24    13    24 1
@<TRIPOS>SUBSTRUCTURE
     1 3S9         1 TEMP              0 ****  ****    0 ROOT
