@<TRIPOS>MOLECULE
3SB
   40    42     1     0     0
SMALL
bcc


@<TRIPOS>ATOM
      1 C1           0.0000     0.0000     0.0000 ca         1 3SB      -0.182000
      2 N1          -0.0840    -0.8950    -2.2570 nz         1 3SB       0.857000
      3 O1          -0.0120     1.7160    -2.7450 o          1 3SB      -0.376000
      4 C2          -0.7530     0.0000    -1.3050 c3         1 3SB      -0.228000
      5 N2          -1.6730     2.2950    -1.3920 ns         1 3SB       0.149000
      6 O2          -2.6800     9.6600    -3.5470 oh         1 3SB      -0.249000
      7 C3          -0.7850     1.3980    -1.8670 c2         1 3SB       0.199000
      8 N3          -1.7020     3.5950    -1.9150 n2         1 3SB      -0.038000
      9 O3          -0.7910     5.3000    -3.4960 oh         1 3SB      -0.203000
     10 C4          -2.5570     4.4590    -1.4590 c2         1 3SB      -0.420000
     11 C5          -2.5890     5.8250    -2.0080 c3         1 3SB      -0.207000
     12 C6           1.3820     0.0000     0.0000 ca         1 3SB      -0.081000
     13 C7           2.0740     0.0000     1.1970 ca         1 3SB      -0.068000
     14 C8           1.3830     0.0000     2.3940 ca         1 3SB      -0.047000
     15 C9           0.0000     0.0010     2.3950 ca         1 3SB      -0.068000
     16 C10         -0.6900     0.0060     1.1980 ca         1 3SB      -0.081000
     17 C11         -3.5080     6.7570    -1.5180 c2         1 3SB       0.085000
     18 C12         -4.4690     6.3660    -0.4270 c3         1 3SB      -0.072000
     19 C13         -3.5330     8.0340    -2.0350 c2         1 3SB      -0.207000
     20 C14         -2.6470     8.3990    -3.0420 c2         1 3SB       0.211000
     21 C15         -1.7320     7.4810    -3.5350 c2         1 3SB      -0.276000
     22 C16         -1.6910     6.1970    -3.0200 c2         1 3SB       0.167000
     23 HN1          0.7730    -0.4770    -2.5620 hn         1 3SB       0.026000
     24 HN1A         0.1120    -1.7690    -1.8110 hn         1 3SB       0.026000
     25 H2          -1.7670    -0.3440    -1.1370 hx         1 3SB       0.129000
     26 HN2         -2.3480     2.0160    -0.7070 hn         1 3SB       0.077000
     27 HO2         -2.0970    10.2120    -3.0520 ho         1 3SB       0.222000
     28 HO3         -0.6000     5.4950    -4.3990 ho         1 3SB       0.220000
     29 H4          -1.8520     5.2390    -1.1980 DU         1 3SB       0.352000
     30 H6           1.9240    -0.0000    -0.9380 ha         1 3SB       0.107000
     31 H7           3.1570    -0.0000     1.1960 ha         1 3SB       0.125500
     32 H8           1.9250    -0.0020     3.3320 ha         1 3SB       0.125000
     33 H9          -0.5410     0.0040     3.3330 ha         1 3SB       0.125500
     34 H10         -1.7740     0.0070     1.1980 ha         1 3SB       0.107000
     35 H12         -5.1630     7.1790    -0.2490 hc         1 3SB       0.064000
     36 H12A        -5.0180     5.4820    -0.7280 hc         1 3SB       0.064000
     37 H12B        -3.9180     6.1570     0.4820 hc         1 3SB       0.064000
     38 H13         -4.2460     8.7560    -1.6550 ha         1 3SB       0.139000
     39 H15         -1.0550     7.7650    -4.3320 ha         1 3SB       0.137000
     40 H131        -0.6770    -1.0450    -3.0480 hn         1 3SB       0.026000
@<TRIPOS>BOND
     1     1     4 1   
     2     1    12 1   
     3     1    16 1   
     4     2     4 1   
     5     2    23 1   
     6     2    24 1   
     7     2    40 1   
     8     3     7 1   
     9     4     7 1   
    10     4    25 1   
    11     5     7 1   
    12     5     8 1   
    13     5    26 1   
    14     6    20 1   
    15     6    27 1   
    16     8    10 1   
    17     9    22 1   
    18     9    28 1   
    19    10    11 1   
    20    10    29 1   
    21    11    17 1   
    22    11    22 1   
    23    11    29 1   
    24    12    13 1   
    25    12    30 1   
    26    13    14 1   
    27    13    31 1   
    28    14    15 1   
    29    14    32 1   
    30    15    16 1   
    31    15    33 1   
    32    16    34 1   
    33    17    18 1   
    34    17    19 1   
    35    18    35 1   
    36    18    36 1   
    37    18    37 1   
    38    19    20 1   
    39    19    38 1   
    40    20    21 1   
    41    21    22 1   
    42    21    39 1   
@<TRIPOS>SUBSTRUCTURE
     1 3SB         1 TEMP              0 ****  ****    0 ROOT
