@<TRIPOS>MOLECULE
molecule
   40    41     1     0     0
SMALL
bcc


@<TRIPOS>ATOM
      1 C1           0.0000     0.0000     0.0000 ca         1 3SB      -0.174300
      2 N1          -0.0840    -0.8950    -2.2570 nz         1 3SB      -0.795600
      3 O1          -0.0120     1.7160    -2.7450 o          1 3SB      -0.556100
      4 C2          -0.7530     0.0000    -1.3050 c3         1 3SB       0.088800
      5 N2          -1.6730     2.2950    -1.3920 ns         1 3SB      -0.322900
      6 O2          -2.6800     9.6600    -3.5470 oh         1 3SB      -0.516100
      7 C3          -0.7850     1.3980    -1.8670 c          1 3SB       0.666100
      8 N3          -1.7020     3.5950    -1.9150 n2         1 3SB      -0.413300
      9 O3          -0.7910     5.3000    -3.4960 oh         1 3SB      -0.465100
     10 C4          -2.5570     4.4590    -1.4590 ce         1 3SB       0.448800
     11 C5          -2.5890     5.8250    -2.0080 ca         1 3SB      -0.204900
     12 C6           1.3820     0.0000     0.0000 ca         1 3SB      -0.108500
     13 C7           2.0740     0.0000     1.1970 ca         1 3SB      -0.101500
     14 C8           1.3830     0.0000     2.3940 ca         1 3SB      -0.079000
     15 C9           0.0000     0.0010     2.3950 ca         1 3SB      -0.101500
     16 C10         -0.6900     0.0060     1.1980 ca         1 3SB      -0.108500
     17 C11         -3.5080     6.7570    -1.5180 ca         1 3SB      -0.001300
     18 C12         -4.4690     6.3660    -0.4270 c3         1 3SB      -0.056800
     19 C13         -3.5330     8.0340    -2.0350 ca         1 3SB      -0.192000
     20 C14         -2.6470     8.3990    -3.0420 ca         1 3SB       0.187100
     21 C15         -1.7320     7.4810    -3.5350 ca         1 3SB      -0.260000
     22 C16         -1.6910     6.1970    -3.0200 ca         1 3SB       0.196100
     23 HN1          0.7730    -0.4770    -2.5620 hn         1 3SB       0.464133
     24 HN1A        -0.6800    -1.0490    -3.0460 hn         1 3SB       0.464133
     25 H2          -1.7670    -0.3440    -1.1370 hx         1 3SB       0.115700
     26 HN2         -2.3510     2.0150    -0.7110 hn         1 3SB       0.297500
     27 HO2         -2.0970    10.2120    -3.0520 ho         1 3SB       0.435000
     28 HO3         -0.5070     5.5650    -4.3550 ho         1 3SB       0.428000
     29 H4          -3.2480     4.1750    -0.6740 h4         1 3SB      -0.007200
     30 H6           1.9240    -0.0000    -0.9380 ha         1 3SB       0.131000
     31 H7           3.1570    -0.0000     1.1960 ha         1 3SB       0.160000
     32 H8           1.9250    -0.0020     3.3320 ha         1 3SB       0.161000
     33 H9          -0.5410     0.0040     3.3330 ha         1 3SB       0.160000
     34 H10         -1.7740     0.0070     1.1980 ha         1 3SB       0.131000
     35 H12         -3.9140     6.0630     0.4530 hc         1 3SB       0.052033
     36 H12A        -5.1010     7.2120    -0.1820 hc         1 3SB       0.052033
     37 H12B        -5.0850     5.5420    -0.7660 hc         1 3SB       0.052033
     38 H13         -4.2460     8.7560    -1.6550 ha         1 3SB       0.156000
     39 H15         -1.0620     7.7620    -4.3390 ha         1 3SB       0.154000
     40 H131         0.1080    -1.7710    -1.8130 hn         1 3SB       0.464133
@<TRIPOS>BOND
     1    12     1 ar  
     2     1     4 1   
     3     1    16 ar  
     4     2     4 1   
     5     2    23 1   
     6     2    24 1   
     7     3     7 2   
     8     7     4 1   
     9     4    25 1   
    10     7     5 1   
    11     8     5 1   
    12     5    26 1   
    13    20     6 1   
    14     6    27 1   
    15     8    10 2   
    16     9    22 1   
    17     9    28 1   
    18    10    11 1   
    19    10    29 1   
    20    22    11 ar  
    21    11    17 ar  
    22    13    12 ar  
    23    12    30 1   
    24    13    14 ar  
    25    13    31 1   
    26    14    15 ar  
    27    14    32 1   
    28    15    16 ar  
    29    15    33 1   
    30    16    34 1   
    31    17    19 ar  
    32    17    18 1   
    33    18    35 1   
    34    18    36 1   
    35    18    37 1   
    36    20    19 ar  
    37    19    38 1   
    38    21    20 ar  
    39    22    21 ar  
    40    21    39 1   
    41    40     2 1   
@<TRIPOS>SUBSTRUCTURE
     1 3SB         1 TEMP              0 ****  ****    0 ROOT
