@<TRIPOS>MOLECULE
3SC
   40    43     1     0     0
SMALL
bcc


@<TRIPOS>ATOM
      1 C01          0.0000     0.0000     0.0000 cc         1 3SC      -0.240000
      2 C02          1.3930     0.0000     0.0000 cd         1 3SC       0.289500
      3 N03          1.7900     0.0000     1.3150 na         1 3SC       0.489200
      4 N04          0.6370     0.0020     2.1090 nd         1 3SC      -0.740100
      5 C05         -0.4200     0.0080     1.3270 cc         1 3SC       0.516500
      6 N06          2.2970    -0.0020    -0.9860 nd         1 3SC      -0.602000
      7 C07          3.5940    -0.0020    -0.7210 cc         1 3SC       0.529800
      8 C08          4.0420    -0.0020     0.6140 cc         1 3SC      -0.390300
      9 C09          3.1270    -0.0010     1.6260 cd         1 3SC       0.010300
     10 N10          3.5400     0.0000     2.9420 nu         1 3SC      -0.370600
     11 C11          4.5750    -0.0040    -1.8300 ca         1 3SC      -0.157500
     12 C12          4.9700    -0.0000     3.2620 c3         1 3SC       0.219100
     13 C13          5.1500     0.0020     4.7570 ca         1 3SC      -0.101300
     14 C14          5.2310     1.1940     5.4620 ca         1 3SC      -0.201800
     15 C15          5.3910     1.1560     6.8340 ca         1 3SC       0.409700
     16 N16          5.4680     0.0040     7.4730 nb         1 3SC      -0.567000
     17 C17          5.3950    -1.1480     6.8360 ca         1 3SC       0.409700
     18 C18          5.2340    -1.1880     5.4640 ca         1 3SC      -0.201800
     19 C19          4.1350    -0.0050    -3.1540 ca         1 3SC      -0.017600
     20 C20          5.0560    -0.0070    -4.1850 ca         1 3SC      -0.052600
     21 C21          6.4120    -0.0070    -3.9040 ca         1 3SC      -0.071000
     22 C22          6.8520    -0.0070    -2.5930 ca         1 3SC      -0.102000
     23 C23          5.9420     0.0000    -1.5550 ca         1 3SC      -0.076000
     24 S24         -1.0410     0.0000    -1.4220 ss         1 3SC      -0.084700
     25 C25         -2.6650     0.0010    -0.6220 c1         1 3SC       0.298900
     26 N26         -3.6810    -0.0160    -0.1140 n1         1 3SC      -0.355800
     27 Cl27         2.4360    -0.0040    -3.5080 cl         1 3SC       0.067600
     28 Cl28         4.5140    -0.0080    -5.8340 cl         1 3SC       0.002600
     29 H05         -1.4470    -0.0110     1.6690 h4         1 3SC       0.026800
     30 H08          5.1030    -0.0030     0.8300 ha         1 3SC       0.152000
     31 HN10         2.8940    -0.2360     3.6690 hn         1 3SC       0.316800
     32 H121         5.4330    -0.8860     2.8430 h1         1 3SC       0.026700
     33 H122         5.4350     0.8830     2.8420 h1         1 3SC       0.026700
     34 H14          5.1650     2.1390     4.9370 ha         1 3SC       0.118000
     35 H15          5.4560     2.0790     7.3970 h4         1 3SC      -0.014900
     36 H17          5.4620    -2.0770     7.3890 h4         1 3SC      -0.014900
     37 H18          5.1710    -2.1350     4.9410 ha         1 3SC       0.118000
     38 H21          7.1330    -0.0090    -4.7130 ha         1 3SC       0.117000
     39 H22          7.9140    -0.0080    -2.3780 ha         1 3SC       0.109000
     40 H23          6.2880     0.0050    -0.5290 ha         1 3SC       0.109000
@<TRIPOS>BOND
     1     1     2 2   
     2     1     5 1   
     3     1    24 1   
     4     2     3 1   
     5     2     6 1   
     6     3     4 1   
     7     3     9 1   
     8     4     5 2   
     9     5    29 1   
    10     6     7 2   
    11     7     8 1   
    12     7    11 1   
    13     8     9 2   
    14     8    30 1   
    15     9    10 1   
    16    10    12 1   
    17    10    31 1   
    18    11    19 ar  
    19    11    23 ar  
    20    12    13 1   
    21    12    32 1   
    22    12    33 1   
    23    13    14 ar  
    24    13    18 ar  
    25    14    15 ar  
    26    14    34 1   
    27    15    16 ar  
    28    15    35 1   
    29    16    17 ar  
    30    17    18 ar  
    31    17    36 1   
    32    18    37 1   
    33    19    20 ar  
    34    19    27 1   
    35    20    21 ar  
    36    20    28 1   
    37    21    22 ar  
    38    21    38 1   
    39    22    23 ar  
    40    22    39 1   
    41    23    40 1   
    42    24    25 1   
    43    25    26 3   
@<TRIPOS>SUBSTRUCTURE
     1 3SC         1 TEMP              0 ****  ****    0 ROOT
