@<TRIPOS>MOLECULE
molecule
   40    43     1     0     0
SMALL
bcc


@<TRIPOS>ATOM
      1 C01          0.0000     0.0000     0.0000 cc         1 3SC      -0.263000
      2 C02          1.3930     0.0000     0.0000 cd         1 3SC       0.474500
      3 N03          1.7900     0.0000     1.3150 na         1 3SC       0.004200
      4 N04          0.6370     0.0020     2.1090 nc         1 3SC      -0.575100
      5 C05         -0.4200     0.0080     1.3270 cd         1 3SC       0.443500
      6 N06          2.2970    -0.0020    -0.9860 nd         1 3SC      -0.703000
      7 C07          3.5940    -0.0020    -0.7210 cc         1 3SC       0.570800
      8 C08          4.0420    -0.0020     0.6140 cd         1 3SC      -0.417300
      9 C09          3.1270    -0.0010     1.6260 cc         1 3SC       0.335300
     10 N10          3.5400     0.0000     2.9420 nu         1 3SC      -0.787600
     11 C11          4.5750    -0.0040    -1.8300 ca         1 3SC      -0.145500
     12 C12          4.9700    -0.0000     3.2620 c3         1 3SC       0.280100
     13 C13          5.1500     0.0020     4.7570 ca         1 3SC      -0.089300
     14 C14          5.2310     1.1940     5.4620 ca         1 3SC      -0.235300
     15 C15          5.3910     1.1560     6.8340 ca         1 3SC       0.422700
     16 N16          5.4680     0.0040     7.4730 nb         1 3SC      -0.676000
     17 C17          5.3950    -1.1480     6.8360 ca         1 3SC       0.422700
     18 C18          5.2340    -1.1880     5.4640 ca         1 3SC      -0.235300
     19 C19          4.1350    -0.0050    -3.1540 ca         1 3SC       0.069400
     20 C20          5.0560    -0.0070    -4.1850 ca         1 3SC       0.018400
     21 C21          6.4120    -0.0070    -3.9040 ca         1 3SC      -0.096000
     22 C22          6.8520    -0.0070    -2.5930 ca         1 3SC      -0.130000
     23 C23          5.9420     0.0000    -1.5550 ca         1 3SC      -0.097000
     24 S24         -1.0410     0.0000    -1.4220 ss         1 3SC      -0.002700
     25 C25         -2.6650     0.0010    -0.6220 c1         1 3SC       0.273900
     26 N26         -3.6810    -0.0160    -0.1140 n1         1 3SC      -0.346800
     27 Cl27         2.4360    -0.0040    -3.5080 cl         1 3SC      -0.030400
     28 Cl28         4.5140    -0.0080    -5.8340 cl         1 3SC      -0.078400
     29 H05         -1.4470    -0.0110     1.6690 h4         1 3SC       0.072800
     30 H08          5.1030    -0.0030     0.8300 ha         1 3SC       0.159000
     31 HN10         2.8940    -0.2360     3.6690 hn         1 3SC       0.466800
     32 H121         5.4330    -0.8860     2.8430 h1         1 3SC       0.055700
     33 H122         5.4350     0.8830     2.8420 h1         1 3SC       0.055700
     34 H14          5.1650     2.1390     4.9370 ha         1 3SC       0.144000
     35 H15          5.4560     2.0790     7.3970 h4         1 3SC       0.030600
     36 H17          5.4620    -2.0770     7.3890 h4         1 3SC       0.030600
     37 H18          5.1710    -2.1350     4.9410 ha         1 3SC       0.144000
     38 H21          7.1330    -0.0090    -4.7130 ha         1 3SC       0.152000
     39 H22          7.9140    -0.0080    -2.3780 ha         1 3SC       0.143000
     40 H23          6.2880     0.0050    -0.5290 ha         1 3SC       0.139000
@<TRIPOS>BOND
     1    15    16 ar
     2    15    14 ar
     3    16    17 ar
     4    14    13 ar
     5    17    18 ar
     6    13    18 ar
     7    13    12 1
     8     4     5 2
     9     4     3 1
    10     5     1 1
    11    10    12 1
    12    10     9 1
    13     3     9 1
    14     3     2 1
    15     9     8 2
    16     1     2 2
    17     1    24 1
    18     2     6 1
    19    24    25 1
    20     8     7 1
    21     6     7 2
    22    25    26 3
    23     7    11 1
    24    23    11 ar
    25    23    22 ar
    26    11    19 ar
    27    22    21 ar
    28    19    27 1
    29    19    20 ar
    30    21    20 ar
    31    20    28 1
    32     5    29 1
    33     8    30 1
    34    10    31 1
    35    12    32 1
    36    12    33 1
    37    14    34 1
    38    15    35 1
    39    17    36 1
    40    18    37 1
    41    21    38 1
    42    22    39 1
    43    23    40 1
@<TRIPOS>SUBSTRUCTURE
     1 3SC         1 TEMP              0 ****  ****    0 ROOT
