@<TRIPOS>MOLECULE
3SE
   39    41     1     0     0
SMALL
bcc


@<TRIPOS>ATOM
      1 O          -0.0330    0.3360   -0.0870 o         1 3SE     -0.601100
      2 C3          1.1870    0.0770   -0.0550 c         1 3SE      0.660100
      3 C2          1.9490    0.1180    1.2570 c3        1 3SE     -0.155400
      4 C1          1.0060    0.4130    2.4000 c3        1 3SE     -0.110400
      5 C           1.7760    0.4740    3.7430 c3        1 3SE      0.623900
      6 F2          0.9680    0.7410    4.8200 f         1 3SE     -0.239967
      7 F1          2.4250   -0.6890    4.0780 f         1 3SE     -0.239967
      8 F           2.7510    1.4390    3.7940 f         1 3SE     -0.239967
      9 N           1.8490   -0.3280   -1.2110 n         1 3SE     -0.459800
     10 C8          1.1690   -0.2490   -2.4890 c3        1 3SE      0.082500
     11 C7          1.7120    0.8400   -3.4150 c3        1 3SE     -0.105900
     12 C6          3.2240    0.7120   -3.5620 c3        1 3SE     -0.090000
     13 C5          3.8980    0.7040   -2.1950 c3        1 3SE     -0.105900
     14 C4          3.2890   -0.3880   -1.3100 c3        1 3SE      0.082500
     15 C9          3.7560    1.8260   -4.3890 cc        1 3SE      0.496700
     16 N2          4.3750    1.8630   -5.5650 nd        1 3SE     -0.631000
     17 C10         4.6090    3.2550   -5.7800 cd        1 3SE      0.504000
     18 N1          4.1310    3.9940   -4.7390 nc        1 3SE     -0.369300
     19 O1          3.6070    3.1570   -3.8800 os        1 3SE     -0.136100
     20 C11         5.2700    3.7940   -6.9550 cd        1 3SE      0.315400
     21 S           5.3450    5.4850   -7.2450 ss        1 3SE      0.017700
     22 C13         6.1850    5.2320   -8.6530 cd        1 3SE     -0.269400
     23 C12         6.3870    3.8690   -8.8660 cc        1 3SE      0.326200
     24 N3          5.8650    3.0410   -7.8970 nc        1 3SE     -0.581000
     25 H2          2.4590   -0.8660    1.4360 hc        1 3SE      0.081200
     26 H2A         2.7360    0.9180    1.2050 hc        1 3SE      0.081200
     27 H1          0.4890    1.3950    2.2460 hc        1 3SE      0.100700
     28 H1A         0.2200   -0.3820    2.4810 hc        1 3SE      0.100700
     29 H8          0.0690   -0.0700   -2.3190 h1        1 3SE      0.065700
     30 H8A         1.2910   -1.2510   -2.9940 h1        1 3SE      0.065700
     31 H7          1.4580    1.8550   -3.0120 hc        1 3SE      0.067700
     32 H7A         1.2200    0.7330   -4.4160 hc        1 3SE      0.067700
     33 H6          3.4580   -0.2590   -4.0890 hc        1 3SE      0.091700
     34 H5          4.9930    0.5000   -2.3090 hc        1 3SE      0.067700
     35 H5A         3.7810    1.7090   -1.7120 hc        1 3SE      0.067700
     36 H4          3.7650   -0.3310   -0.2930 h1        1 3SE      0.065700
     37 H4A         3.5500   -1.3940   -1.7530 h1        1 3SE      0.065700
     38 H13         6.5300    6.0220   -9.3180 h4        1 3SE      0.187000
     39 H12         6.9120    3.4170   -9.7170 h4        1 3SE      0.051100
@<TRIPOS>BOND
     1    1    2 2
     2    2    3 1
     3    2    9 1
     4    3    4 1
     5    3   25 1
     6    3   26 1
     7    4    5 1
     8    4   27 1
     9    4   28 1
    10    5    6 1
    11    5    7 1
    12    5    8 1
    13    9   10 1
    14    9   14 1
    15   10   11 1
    16   10   29 1
    17   10   30 1
    18   11   12 1
    19   11   31 1
    20   11   32 1
    21   12   13 1
    22   12   15 1
    23   12   33 1
    24   13   14 1
    25   13   34 1
    26   13   35 1
    27   14   36 1
    28   14   37 1
    29   15   16 2
    30   15   19 1
    31   16   17 1
    32   17   18 2
    33   17   20 1
    34   18   19 1
    35   20   21 1
    36   20   24 2
    37   21   22 1
    38   22   23 2
    39   22   38 1
    40   23   24 1
    41   23   39 1
@<TRIPOS>SUBSTRUCTURE
     1 3SE         1 TEMP              0 ****  ****    0 ROOT
