@<TRIPOS>MOLECULE
3SF
   42    44     1     0     0
SMALL
bcc


@<TRIPOS>ATOM
      1 C          -0.0730   -0.4820    0.0190 c3        1 3SF      0.627900
      2 F           1.2980   -0.5410   -0.0490 f         1 3SF     -0.238967
      3 N          -4.7660    0.3880    4.1230 n         1 3SF     -0.463800
      4 O          -4.7890   -0.1780    1.9060 o         1 3SF     -0.593100
      5 S          -8.9490   -3.0020   10.7990 ss        1 3SF      0.032700
      6 C1         -0.6000   -0.2820    1.4640 c3        1 3SF     -0.118400
      7 F1         -0.4170    0.5190   -0.8530 f         1 3SF     -0.238967
      8 N1         -6.5260   -4.1190    7.7350 nc        1 3SF     -0.310300
      9 O1         -6.0420   -3.2310    6.8990 os        1 3SF     -0.142100
     10 C2         -2.1080   -0.2230    1.4900 c3        1 3SF     -0.082400
     11 F2         -0.4970   -1.6370   -0.5860 f         1 3SF     -0.238967
     12 N2         -7.2610   -2.0350    8.3690 nd        1 3SF     -0.687000
     13 C3         -2.6040   -0.0090    2.9050 c3        1 3SF     -0.143400
     14 N3         -8.0180   -5.3020   10.0840 nc        1 3SF     -0.591000
     15 C4         -4.1210    0.0340    2.9370 c         1 3SF      0.656100
     16 C5         -6.2110    0.3030    4.2020 c3        1 3SF      0.083500
     17 C6         -6.7200   -0.8350    5.0890 c3        1 3SF     -0.106400
     18 C7         -6.0620   -0.7740    6.4630 c3        1 3SF     -0.090000
     19 C8         -4.5440   -0.7590    6.3300 c3        1 3SF     -0.106400
     20 C9         -4.1040    0.3800    5.4060 c3        1 3SF      0.083500
     21 C10        -6.4950   -1.9320    7.2880 cc        1 3SF      0.509700
     22 C11        -7.2740   -3.4390    8.6460 cd        1 3SF      0.492000
     23 C12        -8.0080   -3.9940    9.7650 cd        1 3SF      0.314400
     24 C13        -8.8130   -5.4830   11.1940 cc        1 3SF      0.328200
     25 C14        -9.3920   -4.3210   11.7030 cd        1 3SF     -0.276400
     26 H1         -0.2210   -1.1370    2.0810 hc        1 3SF      0.078200
     27 H1A        -0.1540    0.6670    1.8560 hc        1 3SF      0.078200
     28 H2         -2.5380   -1.1740    1.0760 hc        1 3SF      0.080200
     29 H2A        -2.4710    0.6100    0.8310 hc        1 3SF      0.080200
     30 H3         -2.1910    0.9540    3.3080 hc        1 3SF      0.066700
     31 H3A        -2.2500   -0.8470    3.5620 hc        1 3SF      0.066700
     32 H5         -6.5810    1.2840    4.6200 h1        1 3SF      0.063950
     33 H5A        -6.6370    0.1760    3.1660 h1        1 3SF      0.063950
     34 H6         -6.5040   -1.8260    4.6110 hc        1 3SF      0.067450
     35 H6A        -7.8310   -0.7360    5.1920 hc        1 3SF      0.067450
     36 H7         -6.3920    0.1720    6.9830 hc        1 3SF      0.087700
     37 H8         -4.1920   -1.7460    5.9290 hc        1 3SF      0.067450
     38 H8A        -4.0730   -0.6060    7.3340 hc        1 3SF      0.067450
     39 H9         -4.3450    1.3620    5.9110 h1        1 3SF      0.063950
     40 H9A        -2.9880    0.3270    5.2820 h1        1 3SF      0.063950
     41 H13        -8.9350   -6.4960   11.5950 h4        1 3SF      0.050100
     42 H14       -10.0460   -4.2830   12.5720 h4        1 3SF      0.186000
@<TRIPOS>BOND
     1    1    2 1
     2    1    6 1
     3    1    7 1
     4    1   11 1
     5    3   15 1
     6    3   16 1
     7    3   20 1
     8    4   15 2
     9    5   23 1
    10    5   25 1
    11    6   10 1
    12    6   26 1
    13    6   27 1
    14    8    9 1
    15    8   22 2
    16    9   21 1
    17   10   13 1
    18   10   28 1
    19   10   29 1
    20   12   21 2
    21   12   22 1
    22   13   15 1
    23   13   30 1
    24   13   31 1
    25   14   23 2
    26   14   24 1
    27   16   17 1
    28   16   32 1
    29   16   33 1
    30   17   18 1
    31   17   34 1
    32   17   35 1
    33   18   19 1
    34   18   21 1
    35   18   36 1
    36   19   20 1
    37   19   37 1
    38   19   38 1
    39   20   39 1
    40   20   40 1
    41   22   23 1
    42   24   25 2
    43   24   41 1
    44   25   42 1
@<TRIPOS>SUBSTRUCTURE
     1 3SF         1 TEMP              0 ****  ****    0 ROOT
