@<TRIPOS>MOLECULE
molecule
   61    64     1     0     0
SMALL
bcc


@<TRIPOS>ATOM
      1 C2           0.0000     0.0000     0.0000 ca         1 3SG      -0.031400
      2 C3           1.3810     0.0000     0.0000 ca         1 3SG       0.415200
      3 C5           1.4510    -0.0000     2.3070 ca         1 3SG       0.430200
      4 C6           0.0730    -0.0000     2.3930 ca         1 3SG      -0.246300
      5 C7          -0.6780     0.0000     1.2200 ca         1 3SG       0.039600
      6 C11         -4.1890     0.5670     2.3580 ca         1 3SG      -0.096600
      7 C12         -4.9220     0.1520     1.2440 ca         1 3SG      -0.096000
      8 C17         -6.2410     1.1350     3.4820 cp         1 3SG      -0.021000
      9 C18         -4.8530     1.0600     3.4800 ca         1 3SG      -0.047000
     10 C19         -6.9560     1.6600     4.6730 cp         1 3SG      -0.114000
     11 C21         -7.3360     3.4310     6.2560 ca         1 3SG      -0.122000
     12 C23         -8.5680     1.3720     6.4390 ca         1 3SG      -0.140600
     13 C24         -7.9010     0.8730     5.3210 ca         1 3SG      -0.083000
     14 C30        -11.8470    -1.9960     9.5610 ca         1 3SG      -0.123600
     15 C31        -12.8080    -1.4220    10.3970 ca         1 3SG      -0.064000
     16 C32        -12.9010    -0.0500    10.5010 ca         1 3SG      -0.157000
     17 C33        -12.0440     0.7630     9.7790 ca         1 3SG       0.121900
     18 C35        -11.7460    -3.4630     9.4480 c          1 3SG       0.649700
     19 C38        -12.4240    -5.6880     9.9900 c3         1 3SG       0.141700
     20 F1          -0.6850     0.0060    -1.1650 f          1 3SG      -0.140900
     21 N4           2.0560     0.0000     1.1350 nb         1 3SG      -0.668000
     22 N8          -2.0730     0.0000     1.2640 ns         1 3SG      -0.454100
     23 C9          -2.7130     0.4780     2.3500 c          1 3SG       0.669700
     24 O10         -2.0780     0.8350     3.3220 o          1 3SG      -0.568100
     25 C13         -6.3000     0.2290     1.2550 ca         1 3SG      -0.095000
     26 C14         -6.9620     0.7180     2.3640 ca         1 3SG      -0.167300
     27 C20         -6.6750     2.9410     5.1480 ca         1 3SG      -0.105000
     28 C22         -8.2810     2.6580     6.9010 ca         1 3SG      -0.086000
     29 C25         -9.5750     0.5420     7.1340 c          1 3SG       0.666700
     30 N27        -10.2180     1.0270     8.2140 ns         1 3SG      -0.452100
     31 C28        -11.0820     0.2010     8.9430 ca         1 3SG      -0.007400
     32 C29        -10.9850    -1.1760     8.8290 ca         1 3SG      -0.063000
     33 O36        -10.9100    -3.9610     8.7200 o          1 3SG      -0.541000
     34 O37        -12.5810    -4.2530    10.1510 os         1 3SG      -0.427900
     35 H1           1.9170     0.0000    -0.9420 h4         1 3SG       0.046100
     36 H2           2.0430    -0.0010     3.2140 h4         1 3SG       0.041100
     37 H3          -0.4170    -0.0010     3.3590 ha         1 3SG       0.190000
     38 H4          -4.4080    -0.2320     0.3710 ha         1 3SG       0.155000
     39 H5          -8.8490     0.4100     3.3020 hx         1 3SG       0.119700
     40 H6          -8.8610     0.2150     1.5440 hx         1 3SG       0.119700
     41 H7          -4.2890     1.3840     4.3470 ha         1 3SG       0.187000
     42 H8          -7.1150     4.4280     6.6200 ha         1 3SG       0.159000
     43 H9          -8.1200    -0.1240     4.9580 ha         1 3SG       0.166000
     44 H10        -13.4810    -2.0540    10.9630 ha         1 3SG       0.165000
     45 H11        -13.6470     0.3930    11.1500 ha         1 3SG       0.162000
     46 H12        -12.5600    -5.9510     8.9480 h1         1 3SG       0.054033
     47 H13        -11.4320    -5.9810    10.3110 h1         1 3SG       0.054033
     48 H14        -13.1650    -6.2010    10.5920 h1         1 3SG       0.054033
     49 H15         -2.5980    -0.3750     0.4990 hn         1 3SG       0.335500
     50 H16         -6.8650    -0.0940     0.3880 ha         1 3SG       0.147000
     51 H17         -8.0900     2.8000     2.3500 hn         1 3SG       0.455467
     52 H18         -9.2660     2.3600     1.3030 hn         1 3SG       0.455467
     53 H20         -5.9350     3.5520     4.6470 ha         1 3SG       0.149000
     54 H21         -8.7980     3.0480     7.7700 ha         1 3SG       0.150000
     55 H22        -10.1370     1.9960     8.4490 hn         1 3SG       0.335500
     56 H23        -10.2380    -1.6150     8.1790 ha         1 3SG       0.206000
     57 C15         -8.4670     0.8000     2.3660 c3         1 3SG       0.153100
     58 O26         -9.8230    -0.5780     6.7300 o          1 3SG      -0.583100
     59 H163        -9.5760     2.4040     2.9040 hn         1 3SG       0.455467
     60 F34        -12.1410     2.1070     9.8840 f          1 3SG      -0.141900
     61 N16         -8.8810     2.2010     2.2130 nz         1 3SG      -0.808600
@<TRIPOS>BOND
     1    20     1 1
     2     2     1 ar
     3     2    21 ar
     4     1     5 ar
     5    21     3 ar
     6     5    22 1
     7     5     4 ar
     8    22    23 1
     9     3     4 ar
    10     7    25 ar
    11     7     6 ar
    12    23     6 1
    13    23    24 2
    14    25    26 ar
    15     6     9 ar
    16    26    57 1
    17    26     8 ar
    18     9     8 ar
    19    27    11 ar
    20    27    10 ar
    21    57    61 1
    22     8    10 1
    23    11    28 ar
    24    10    13 ar
    25    28    12 ar
    26    13    12 ar
    27    12    29 1
    28    29    58 2
    29    29    30 1
    30    30    31 1
    31    19    34 1
    32    32    31 ar
    33    32    14 ar
    34    31    17 ar
    35    34    18 1
    36    14    18 1
    37    14    15 ar
    38    18    33 2
    39    17    60 1
    40    17    16 ar
    41    15    16 ar
    42     2    35 1
    43     3    36 1
    44     4    37 1
    45     7    38 1
    46    57    39 1
    47    57    40 1
    48     9    41 1
    49    11    42 1
    50    13    43 1
    51    15    44 1
    52    16    45 1
    53    19    46 1
    54    19    47 1
    55    19    48 1
    56    22    49 1
    57    25    50 1
    58    61    51 1
    59    61    52 1
    60    27    53 1
    61    28    54 1
    62    30    55 1
    63    32    56 1
    64    59    61 1
@<TRIPOS>SUBSTRUCTURE
     1 3SG         1 TEMP              0 ****  ****    0 ROOT
