@<TRIPOS>MOLECULE
molecule
   42    44     1     0     0
SMALL
bcc


@<TRIPOS>ATOM
      1 C1           0.0000     0.0000     0.0000 ca         1 3SH       0.149600
      2 C2           1.3890     0.0000     0.0000 ca         1 3SH      -0.151000
      3 C3           2.0790     0.0000     1.1960 ca         1 3SH      -0.092000
      4 C4           1.3870     0.0000     2.3940 ca         1 3SH      -0.090300
      5 C5           0.0040    -0.0010     2.3980 ca         1 3SH       0.057400
      6 C6          -0.6920    -0.0000     1.2030 ca         1 3SH      -0.166000
      7 C7           2.1430    -0.0000     3.6990 c3         1 3SH      -0.047800
      8 N9          -0.7000     0.0060    -1.2100 nu         1 3SH      -0.742300
      9 C10         -1.8740     0.7210    -1.3250 cc         1 3SH       0.715300
     10 S11         -2.4930     1.7660    -0.1230 ss         1 3SH      -0.129300
     11 C12         -3.8790     2.1460    -1.1420 cc         1 3SH      -0.271000
     12 C13         -3.7430     1.4350    -2.3180 cd         1 3SH       0.566800
     13 N14         -2.6550     0.6960    -2.3630 nd         1 3SH      -0.763000
     14 C15         -4.7260     1.5010    -3.4240 ca         1 3SH      -0.142500
     15 C16         -5.2100     2.7350    -3.8570 ca         1 3SH      -0.069000
     16 C17         -6.1260     2.7900    -4.8880 ca         1 3SH      -0.142500
     17 C18         -6.5630     1.6240    -5.4920 ca         1 3SH      -0.111000
     18 C19         -6.0860     0.3980    -5.0670 ca         1 3SH      -0.142500
     19 C20         -5.1660     0.3300    -4.0410 ca         1 3SH      -0.069000
     20 C21         -4.9400     3.0220    -0.8140 c          1 3SH       0.691700
     21 O22         -5.9040     3.1130    -1.5520 o          1 3SH      -0.549000
     22 O23         -4.8840     3.7560     0.3170 os         1 3SH      -0.429900
     23 C24         -5.9910     4.6190     0.5850 c3         1 3SH       0.147400
     24 C25         -5.7510     5.3630     1.9010 c3         1 3SH      -0.096100
     25 Cl8         -0.8600    -0.0020     3.9050 cl         1 3SH      -0.094400
     26 H1           1.9310     0.0000    -0.9380 ha         1 3SH       0.142000
     27 H2           3.1620     0.0000     1.1970 ha         1 3SH       0.145000
     28 H3          -1.7760    -0.0010     1.2060 ha         1 3SH       0.163000
     29 H4           1.8800     0.8830     4.2690 hc         1 3SH       0.051033
     30 H5           3.2080     0.0030     3.4990 hc         1 3SH       0.051033
     31 H6           1.8850    -0.8860     4.2660 hc         1 3SH       0.051033
     32 H7          -0.3600    -0.5240    -1.9880 hn         1 3SH       0.472800
     33 H8          -4.8690     3.6480    -3.3850 ha         1 3SH       0.138500
     34 H9          -6.5030     3.7480    -5.2250 ha         1 3SH       0.130000
     35 H10         -7.2840     1.6720    -6.2990 ha         1 3SH       0.126000
     36 H11         -6.4300    -0.5110    -5.5450 ha         1 3SH       0.130000
     37 H12         -4.7930    -0.6320    -3.7090 ha         1 3SH       0.138500
     38 H13         -6.8980     4.0310     0.6640 h1         1 3SH       0.046200
     39 H14         -6.0940     5.3350    -0.2210 h1         1 3SH       0.046200
     40 H15         -4.8450     5.9520     1.8230 hc         1 3SH       0.046367
     41 H16         -5.6470     4.6470     2.7070 hc         1 3SH       0.046367
     42 H17         -6.5900     6.0170     2.1050 hc         1 3SH       0.046367
@<TRIPOS>BOND
     1     2     3 ar
     2     2     1 ar
     3     3     4 ar
     4    16    15 ar
     5    16    17 ar
     6     8     1 1
     7     8     9 1
     8     1     6 ar
     9    15    14 ar
    10     4     7 1
    11     4     5 ar
    12    13     9 2
    13    13    12 1
    14    17    18 ar
    15     9    10 1
    16     6     5 ar
    17     5    25 1
    18    14    12 1
    19    14    19 ar
    20    12    11 2
    21    18    19 ar
    22    10    11 1
    23    11    20 1
    24    20    22 1
    25    20    21 2
    26    22    23 1
    27    23    24 1
    28     2    26 1
    29     3    27 1
    30     6    28 1
    31     7    29 1
    32     7    30 1
    33     7    31 1
    34     8    32 1
    35    15    33 1
    36    16    34 1
    37    17    35 1
    38    18    36 1
    39    19    37 1
    40    23    38 1
    41    23    39 1
    42    24    40 1
    43    24    41 1
    44    24    42 1
@<TRIPOS>SUBSTRUCTURE
     1 3SH         1 TEMP              0 ****  ****    0 ROOT
