@<TRIPOS>MOLECULE
3SH
   42    44     1     0     0
SMALL
bcc


@<TRIPOS>ATOM
      1 C1           0.0000     0.0000     0.0000 ca         1 3SH      -0.023400
      2 C2           1.3890     0.0000     0.0000 ca         1 3SH      -0.116000
      3 C3           2.0790     0.0000     1.1960 ca         1 3SH      -0.066000
      4 C4           1.3870     0.0000     2.3940 ca         1 3SH      -0.093300
      5 C5           0.0040    -0.0010     2.3980 ca         1 3SH      -0.006600
      6 C6          -0.6920    -0.0000     1.2030 ca         1 3SH      -0.139000
      7 C7           2.1430    -0.0000     3.6990 c3         1 3SH       0.059200
      8 N9          -0.7000     0.0060    -1.2100 nu         1 3SH      -0.245300
      9 C10         -1.8740     0.7210    -1.3250 cc         1 3SH       0.560300
     10 S11         -2.4930     1.7660    -0.1230 ss         1 3SH      -0.262300
     11 C12         -3.8790     2.1460    -1.1420 cc         1 3SH      -0.247000
     12 C13         -3.7430     1.4350    -2.3180 cd         1 3SH       0.548800
     13 N14         -2.6550     0.6960    -2.3630 nd         1 3SH      -0.663000
     14 C15         -4.7260     1.5010    -3.4240 ca         1 3SH      -0.153500
     15 C16         -5.2100     2.7350    -3.8570 ca         1 3SH      -0.047000
     16 C17         -6.1260     2.7900    -4.8880 ca         1 3SH      -0.115000
     17 C18         -6.5630     1.6240    -5.4920 ca         1 3SH      -0.085000
     18 C19         -6.0860     0.3980    -5.0670 ca         1 3SH      -0.115000
     19 C20         -5.1660     0.3300    -4.0410 ca         1 3SH      -0.047000
     20 C21         -4.9400     3.0220    -0.8140 c          1 3SH       0.766700
     21 O22         -5.9040     3.1130    -1.5520 o          1 3SH      -0.593000
     22 O23         -4.8840     3.7560     0.3170 os         1 3SH      -0.408900
     23 C24         -5.9910     4.6190     0.5850 c3         1 3SH       0.223400
     24 C25         -5.7510     5.3630     1.9010 c3         1 3SH      -0.003100
     25 Cl8         -0.8600    -0.0020     3.9050 cl         1 3SH      -0.010400
     26 H1           1.9310     0.0000    -0.9380 ha         1 3SH       0.112000
     27 H2           3.1620     0.0000     1.1970 ha         1 3SH       0.113000
     28 H3          -1.7760    -0.0010     1.2060 ha         1 3SH       0.150000
     29 H4           1.8800     0.8830     4.2690 hc         1 3SH       0.014700
     30 H5           3.2080     0.0030     3.4990 hc         1 3SH       0.014700
     31 H6           1.8850    -0.8860     4.2660 hc         1 3SH       0.014700
     32 H7          -0.3600    -0.5240    -1.9880 hn         1 3SH       0.296800
     33 H8          -4.8690     3.6480    -3.3850 ha         1 3SH       0.110500
     34 H9          -6.5030     3.7480    -5.2250 ha         1 3SH       0.101500
     35 H10         -7.2840     1.6720    -6.2990 ha         1 3SH       0.098000
     36 H11         -6.4300    -0.5110    -5.5450 ha         1 3SH       0.101500
     37 H12         -4.7930    -0.6320    -3.7090 ha         1 3SH       0.110500
     38 H13         -6.8980     4.0310     0.6640 h1         1 3SH       0.007200
     39 H14         -6.0940     5.3350    -0.2210 h1         1 3SH       0.007200
     40 H15         -4.8450     5.9520     1.8230 hc         1 3SH       0.010033
     41 H16         -5.6470     4.6470     2.7070 hc         1 3SH       0.010033
     42 H17         -6.5900     6.0170     2.1050 hc         1 3SH       0.010033
@<TRIPOS>BOND
     1     1     2 ar  
     2     1     6 ar  
     3     1     8 1   
     4     2     3 ar  
     5     2    26 1   
     6     3     4 ar  
     7     3    27 1   
     8     4     5 ar  
     9     4     7 1   
    10     5     6 ar  
    11     5    25 1   
    12     6    28 1   
    13     7    29 1   
    14     7    30 1   
    15     7    31 1   
    16     8     9 1   
    17     8    32 1   
    18     9    10 1   
    19     9    13 2   
    20    10    11 1   
    21    11    12 2   
    22    11    20 1   
    23    12    13 1   
    24    12    14 1   
    25    14    15 ar  
    26    14    19 ar  
    27    15    16 ar  
    28    15    33 1   
    29    16    17 ar  
    30    16    34 1   
    31    17    18 ar  
    32    17    35 1   
    33    18    19 ar  
    34    18    36 1   
    35    19    37 1   
    36    20    21 2   
    37    20    22 1   
    38    22    23 1   
    39    23    24 1   
    40    23    38 1   
    41    23    39 1   
    42    24    40 1   
    43    24    41 1   
    44    24    42 1   
@<TRIPOS>SUBSTRUCTURE
     1 3SH         1 TEMP              0 ****  ****    0 ROOT
