@<TRIPOS>MOLECULE
3SJ
   54    58     1     0     0
SMALL
bcc


@<TRIPOS>ATOM
      1 C31          0.0000     0.0000     0.0000 ca         1 3SJ      -0.102000
      2 C30          1.3930     0.0000     0.0000 ca         1 3SJ      -0.092000
      3 C32         -0.6990     0.0080     1.1680 ca         1 3SJ      -0.079000
      4 C25         -0.6980     0.0210     3.6200 ca         1 3SJ      -0.049000
      5 C19          1.5600     0.0400     7.1970 ca         1 3SJ      -0.033000
      6 C20          3.6110     0.0270     5.9250 ca         1 3SJ      -0.033000
      7 C29          2.0950     0.0000     1.1670 ca         1 3SJ      -0.144300
      8 C21          2.2890     0.0460     8.3670 ca         1 3SJ      -0.186500
      9 C17          4.3350     0.0440     7.0970 ca         1 3SJ      -0.186500
     10 C26          0.0320     0.0280     4.7700 ca         1 3SJ      -0.222300
     11 C4           5.9480     0.8250    13.4950 cc         1 3SJ      -0.245300
     12 C27         -0.0090     0.0140     2.3910 ca         1 3SJ      -0.156300
     13 C18          2.2160     0.0310     5.9660 cp         1 3SJ      -0.205500
     14 C3           5.1230     1.2380    12.4910 cd         1 3SJ      -0.242100
     15 C28          1.4090     0.0010     2.3940 ca         1 3SJ       0.380600
     16 C16          3.6780     0.0480     8.3210 ca         1 3SJ       0.164100
     17 C22          1.4350     0.0230     4.7080 cp         1 3SJ       0.461800
     18 C2           4.6100     0.0880    11.8620 cd         1 3SJ       0.356600
     19 C12          3.5750     3.2140    12.4710 cd         1 3SJ      -0.017000
     20 C11          3.3170     4.5080    12.1280 cc         1 3SJ      -0.239200
     21 C9           5.7440     3.3950    11.4610 cc         1 3SJ      -0.129400
     22 C8           4.8200     2.6460    12.1280 cd         1 3SJ      -0.087200
     23 C10          4.2930     5.2450    11.4360 c          1 3SJ       0.580700
     24 C1           3.6540     0.0680    10.6970 c3         1 3SJ       0.192100
     25 N24          2.0740     0.0070     3.5530 nb         1 3SJ      -0.571000
     26 N6           5.1070    -0.9610    12.4640 nc         1 3SJ      -0.623800
     27 N5           5.9550    -0.5240    13.4890 na         1 3SJ       0.495400
     28 N13          5.4710     4.6800    11.1150 n          1 3SJ       0.125000
     29 O23          4.0710     6.4050    11.1260 o          1 3SJ      -0.706500
     30 O15          4.3940     0.0650     9.4740 os         1 3SJ      -0.298900
     31 H1          -0.5340    -0.0000    -0.9420 ha         1 3SJ       0.102000
     32 H2           1.9260    -0.0060    -0.9430 ha         1 3SJ       0.103000
     33 H3          -1.7820     0.0080     1.1550 ha         1 3SJ       0.106000
     34 H4          -1.7800     0.0250     3.6490 ha         1 3SJ       0.109000
     35 H5           0.4770     0.0410     7.2340 ha         1 3SJ       0.116000
     36 H6           4.1240     0.0210     4.9710 ha         1 3SJ       0.116000
     37 H7           3.1790     0.0000     1.1490 ha         1 3SJ       0.116000
     38 H8           1.7800     0.0510     9.3230 ha         1 3SJ       0.119000
     39 H9           5.4180     0.0430     7.0640 ha         1 3SJ       0.119000
     40 H10         -0.4670     0.1100     5.7280 ha         1 3SJ       0.120000
     41 H11          6.5020     1.4640    14.1720 h4         1 3SJ       0.149000
     42 H12          2.8340     2.6310    13.0040 ha         1 3SJ       0.108000
     43 H13          2.3680     4.9630    12.3840 ha         1 3SJ       0.136000
     44 H14          6.6980     2.9580    11.1930 h4         1 3SJ       0.134000
     45 H15          6.3980    -1.1900    15.4230 h1         1 3SJ       0.023033
     46 H16          6.5240    -2.4230    14.1600 h1         1 3SJ       0.023033
     47 H17          7.7690    -1.1750    14.3050 h1         1 3SJ       0.023033
     48 H18          6.0660     5.8190     9.4630 h1         1 3SJ       0.025367
     49 H19          7.3460     4.8460    10.2000 h1         1 3SJ       0.025367
     50 H20          6.7750     6.3130    11.0070 h1         1 3SJ       0.025367
     51 H21          3.0390    -0.8230    10.7500 h1         1 3SJ       0.012700
     52 H22          3.0210     0.9460    10.7340 h1         1 3SJ       0.012700
     53 C7           6.7110    -1.3840    14.4040 c3         1 3SJ       0.022600
     54 C14          6.4800     5.4660    10.4000 c3         1 3SJ       0.048300
@<TRIPOS>BOND
     1     1     2 ar  
     2     1     3 ar  
     3     1    31 1   
     4     2     7 ar  
     5     2    32 1   
     6     3    12 ar  
     7     3    33 1   
     8     4    10 ar  
     9     4    12 ar  
    10     4    34 1   
    11     5     8 ar  
    12     5    13 ar  
    13     5    35 1   
    14     6     9 ar  
    15     6    13 ar  
    16     6    36 1   
    17     7    15 ar  
    18     7    37 1   
    19     8    16 ar  
    20     8    38 1   
    21     9    16 ar  
    22     9    39 1   
    23    10    17 ar  
    24    10    40 1   
    25    11    14 2   
    26    11    27 1   
    27    11    41 1   
    28    12    15 ar  
    29    13    17 1   
    30    14    18 1   
    31    14    22 1   
    32    15    25 ar  
    33    16    30 1   
    34    17    25 ar  
    35    18    24 1   
    36    18    26 2   
    37    19    20 2   
    38    19    22 1   
    39    19    42 1   
    40    20    23 1   
    41    20    43 1   
    42    21    22 2   
    43    21    28 1   
    44    21    44 1   
    45    23    28 1   
    46    23    29 2   
    47    24    30 1   
    48    24    51 1   
    49    24    52 1   
    50    26    27 1   
    51    27    53 1   
    52    28    54 1   
    53    45    53 1   
    54    46    53 1   
    55    47    53 1   
    56    48    54 1   
    57    49    54 1   
    58    50    54 1   
@<TRIPOS>SUBSTRUCTURE
     1 3SJ         1 TEMP              0 ****  ****    0 ROOT
