@<TRIPOS>MOLECULE
molecule
   17    17     1     0     0
SMALL
bcc


@<TRIPOS>ATOM
      1 O8           0.0000     0.0000     0.0000 o          1 3SK      -0.840800
      2 C1           1.2150     0.0000     0.0000 c          1 3SK       0.884200
      3 O9           1.8890     0.0000     1.1670 o          1 3SK      -0.840800
      4 C2           1.9540    -0.0050    -1.2790 ca         1 3SK      -0.107600
      5 C3           3.3440     0.1260    -1.2870 ca         1 3SK      -0.091000
      6 C4           4.0270     0.1210    -2.4850 ca         1 3SK      -0.173000
      7 C5           3.3380    -0.0140    -3.6770 ca         1 3SK      -0.153000
      8 C6           1.9600    -0.1440    -3.6770 ca         1 3SK      -0.164000
      9 C7           1.2660    -0.1460    -2.4860 ca         1 3SK      -0.056300
     10 C10         -0.2340    -0.2940    -2.4860 c3         1 3SK      -0.025800
     11 H2           3.8850     0.2320    -0.3540 ha         1 3SK       0.151000
     12 H3           5.1060     0.2230    -2.4930 ha         1 3SK       0.101000
     13 H4           3.8790    -0.0150    -4.6160 ha         1 3SK       0.097000
     14 H5           1.4270    -0.2520    -4.6140 ha         1 3SK       0.104000
     15 H6          -0.6860     0.5990    -2.0710 hc         1 3SK       0.039367
     16 H7          -0.5830    -0.4360    -3.5020 hc         1 3SK       0.039367
     17 H8          -0.5130    -1.1520    -1.8860 hc         1 3SK       0.039367
@<TRIPOS>BOND
     1     6     5 ar
     2     6     7 ar
     3     5     4 ar
     4     1     2 1
     5     7     8 ar
     6     4     2 1
     7     4     9 ar
     8     2     3 1
     9     8     9 ar
    10     9    10 1
    11     5    11 1
    12     6    12 1
    13     7    13 1
    14     8    14 1
    15    10    15 1
    16    10    16 1
    17    10    17 1
@<TRIPOS>SUBSTRUCTURE
     1 3SK         1 TEMP              0 ****  ****    0 ROOT
