@<TRIPOS>MOLECULE
3SK
   17    17     1     0     0
SMALL
bcc


@<TRIPOS>ATOM
      1 O8         -0.0220    0.1620    0.1300 o         1 3SK     -0.834800
      2 C1          1.2320    0.0060    0.0820 c         1 3SK      0.906200
      3 O9          1.9540   -0.1360    1.1110 o         1 3SK     -0.834800
      4 C2          1.9310   -0.0040   -1.2720 ca        1 3SK     -0.123600
      5 C3          3.3220    0.1540   -1.2890 ca        1 3SK     -0.105000
      6 C4          4.0320    0.1600   -2.4870 ca        1 3SK     -0.172000
      7 C5          3.3530    0.0010   -3.6940 ca        1 3SK     -0.156000
      8 C6          1.9710   -0.1620   -3.6920 ca        1 3SK     -0.168000
      9 C7          1.2490   -0.1640   -2.4900 ca        1 3SK     -0.048300
     10 C10        -0.2220   -0.3320   -2.5230 c3        1 3SK     -0.041800
     11 H2          3.8390    0.2650   -0.3210 ha        1 3SK      0.151000
     12 H3          5.1230    0.2860   -2.4820 ha        1 3SK      0.102000
     13 H4          3.9050    0.0040   -4.6430 ha        1 3SK      0.098000
     14 H5          1.4370   -0.2890   -4.6450 ha        1 3SK      0.102000
     15 H6         -0.7150    0.5970   -2.1360 hc        1 3SK      0.042033
     16 H7         -0.5900   -0.5450   -3.5560 hc        1 3SK      0.042033
     17 H8         -0.5280   -1.1640   -1.8390 hc        1 3SK      0.042033
@<TRIPOS>BOND
     1    1    2 1   
     2    2    3 1   
     3    2    4 1   
     4    4    5 ar  
     5    4    9 ar  
     6    5    6 ar  
     7    5   11 1   
     8    6    7 ar  
     9    6   12 1   
    10    7    8 ar  
    11    7   13 1   
    12    8    9 ar  
    13    8   14 1   
    14    9   10 1   
    15   10   15 1   
    16   10   16 1   
    17   10   17 1   
@<TRIPOS>SUBSTRUCTURE
     1 3SK         1 TEMP              0 ****  ****    0 ROOT
