@<TRIPOS>MOLECULE
3SL
   14    13     1     0     0
SMALL
bcc


@<TRIPOS>ATOM
      1 O11        -0.0700   -0.2160    0.2380 o         1 3SL     -0.869800
      2 C1          1.1880   -0.1280    0.1510 c         1 3SL      0.887600
      3 O12         1.7990   -0.0610   -0.9630 o         1 3SL     -0.869800
      4 C2          2.0530   -0.1270    1.4330 c3        1 3SL      0.076100
      5 O2          3.3710   -0.5620    1.1170 oh        1 3SL     -0.637800
      6 C3          2.0770    1.2510    2.0730 c3        1 3SL     -0.312600
      7 S           2.5320    1.3860    3.7650 s6        1 3SL      1.408800
      8 O3S         3.8950    1.8130    3.7920 o         1 3SL     -0.768533
      9 O1S         2.3240    0.1410    4.4200 o         1 3SL     -0.768533
     10 O2S         1.6710    2.4090    4.2830 o         1 3SL     -0.768533
     11 H2          1.6650   -0.8840    2.1690 h1        1 3SL      0.066700
     12 HO2         3.5580   -0.2310    0.2260 ho        1 3SL      0.402000
     13 H31         1.0470    1.6760    1.9530 h1        1 3SL      0.077700
     14 H32         2.7640    1.8950    1.4700 h1        1 3SL      0.077700
@<TRIPOS>BOND
     1    1    2 1   
     2    2    3 1   
     3    2    4 1   
     4    4    5 1   
     5    4    6 1   
     6    4   11 1   
     7    5   12 1   
     8    6    7 1   
     9    6   13 1   
    10    6   14 1   
    11    7    8 1   
    12    7    9 1   
    13    7   10 1   
@<TRIPOS>SUBSTRUCTURE
     1 3SL         1 TEMP              0 ****  ****    0 ROOT
