@<TRIPOS>MOLECULE
molecule
   14    13     1     0     0
SMALL
bcc


@<TRIPOS>ATOM
      1 O11          0.0000     0.0000     0.0000 o          1 3SL      -0.869300
      2 C1           1.3420     0.0000     0.0000 c          1 3SL       0.881600
      3 O12          1.9440    -0.0010    -1.0470 o          1 3SL      -0.869300
      4 C2           2.0950     0.0000     1.3050 c3         1 3SL       0.057100
      5 O2           3.5000    -0.0010     1.0430 oh         1 3SL      -0.599800
      6 C3           1.7280     1.2480     2.1070 c3         1 3SL      -0.220600
      7 S            2.6350     1.2490     3.6760 s6         1 3SL       1.272800
      8 O3S          4.0210     1.4840     3.4800 o          1 3SL      -0.737533
      9 O1S          2.1580     0.2420     4.5570 o          1 3SL      -0.737533
     10 O2S          2.1670     2.5320     4.3480 o          1 3SL      -0.737533
     11 H2           1.8330    -0.8840     1.8730 h1         1 3SL       0.014700
     12 HO2          3.7990    -0.8880     0.9310 ho         1 3SL       0.369000
     13 H31          0.6630     1.2490     2.3060 h1         1 3SL       0.088700
     14 H32          1.9890     2.1330     1.5380 h1         1 3SL       0.088700
@<TRIPOS>BOND
     1     1     2 1
     2     2     3 1
     3     2     4 1
     4     4     5 1
     5     4     6 1
     6     4    11 1
     7     5    12 1
     8     6     7 1
     9     6    13 1
    10     6    14 1
    11     7     8 1
    12     7     9 1
    13     7    10 1
@<TRIPOS>SUBSTRUCTURE
     1 3SL         1 TEMP              0 ****  ****    0 ROOT
