@<TRIPOS>MOLECULE
molecule
   49    52     1     0     0
SMALL
bcc


@<TRIPOS>ATOM
      1 C13          0.0000     0.0000     0.0000 ca         1 3SM       0.407600
      2 C17         -0.7430     0.0060    -1.3100 c3         1 3SM       0.073700
      3 C16          1.3600     0.0000     2.3660 ca         1 3SM      -0.251300
      4 C15         -0.0230     0.0000     2.3930 ca         1 3SM      -0.084000
      5 C21         -1.6530     3.0530    -3.4420 c3         1 3SM       0.065400
      6 C23         -2.5460     4.3610    -5.2410 c3         1 3SM       0.127700
      7 C11          2.0140     0.0000     1.1320 ca         1 3SM       0.523100
      8 N1           7.1740    -0.0120    -1.6880 na         1 3SM      -0.134300
      9 C2           8.5360    -0.0100    -1.7430 cc         1 3SM       0.390700
     10 N3           9.0270    -0.0050    -0.5380 nd         1 3SM      -0.581100
     11 C4           8.0150    -0.0050     0.3650 ca         1 3SM      -0.108900
     12 C5           6.8180    -0.0040    -0.3640 ca         1 3SM       0.004800
     13 C6           5.6020    -0.0020     0.3460 ca         1 3SM      -0.278100
     14 C7           5.6310    -0.0020     1.7500 ca         1 3SM       0.533800
     15 N8           4.3260    -0.0020     2.1830 na         1 3SM      -0.261100
     16 C9           3.4900    -0.0010     1.0850 cc         1 3SM      -0.178900
     17 C10          4.2410    -0.0010    -0.0440 cd         1 3SM      -0.101200
     18 N12          1.3180     0.0000     0.0000 nb         1 3SM      -0.680000
     19 C14         -0.7100     0.0000     1.1870 ca         1 3SM      -0.248300
     20 N18         -0.8790     1.3840    -1.7880 ns         1 3SM      -0.588900
     21 O20         -1.9720     0.7190    -3.6010 o          1 3SM      -0.575100
     22 O22         -2.3580     3.0580    -4.6850 os         1 3SM      -0.393600
     23 N24          6.7940    -0.0040     2.4000 nb         1 3SM      -0.820000
     24 C25          7.9540     0.0000     1.7720 ca         1 3SM       0.801200
     25 N26          9.1300    -0.0010     2.5070 nu         1 3SM      -0.901900
     26 H35         -1.7270    -0.4270    -1.1700 h1         1 3SM       0.069700
     27 H36         -0.1930    -0.5770    -2.0400 h1         1 3SM       0.069700
     28 H34          1.9280     0.0000     3.2890 ha         1 3SM       0.135000
     29 H33         -0.5580     0.0010     3.3350 ha         1 3SM       0.142000
     30 H38         -0.6700     3.4850    -3.5830 h1         1 3SM       0.040200
     31 H39         -2.2030     3.6360    -2.7130 h1         1 3SM       0.040200
     32 H41         -3.1130     4.9710    -4.5480 h1         1 3SM       0.032033
     33 H40         -3.0850     4.2810    -6.1770 h1         1 3SM       0.032033
     34 H42         -1.5810     4.8200    -5.4180 h1         1 3SM       0.032033
     35 H45         10.0860    -0.0090     4.3690 h1         1 3SM       0.038700
     36 H44          8.5560     0.8780     4.3170 h1         1 3SM       0.038700
     37 H46          8.5530    -0.8910     4.3110 h1         1 3SM       0.038700
     38 H29          9.1210    -0.0130    -2.6540 h5         1 3SM       0.073800
     39 H30          4.0300    -0.0020     3.1390 hn         1 3SM       0.304700
     40 H31          3.8680    -0.0960    -1.0570 ha         1 3SM       0.160000
     41 H32         -1.7930     0.0000     1.1750 ha         1 3SM       0.144000
     42 H37         -0.5250     2.1420    -1.2370 hn         1 3SM       0.316500
     43 H43         10.0140     0.0300     2.0380 hn         1 3SM       0.463800
     44 H48          5.6450    -0.9090    -2.7970 h1         1 3SM       0.056033
     45 H47          6.8310    -0.0080    -3.7510 h1         1 3SM       0.056033
     46 H49          5.6250     0.8600    -2.7910 h1         1 3SM       0.056033
     47 C28          6.2590    -0.0180    -2.8310 c3         1 3SM       0.037600
     48 C19         -1.5140     1.6350    -2.9510 c          1 3SM       0.655100
     49 C27          9.0780    -0.0060     3.9710 c3         1 3SM       0.230100
@<TRIPOS>BOND
     1    21    48 2
     2    22     5 1
     3    22     6 1
     4     5    48 1
     5    48    20 1
     6    49    25 1
     7    20     2 1
     8     2     1 1
     9    25    24 1
    10    23    24 ar
    11    23    14 ar
    12    24    11 ar
    13     1    18 ar
    14     1    19 ar
    15    18     7 ar
    16    15    14 1
    17    15    16 1
    18    14    13 ar
    19    11    10 1
    20    11    12 ar
    21    19     4 ar
    22    16     7 1
    23    16    17 2
    24     7     3 ar
    25    10     9 2
    26    13    12 ar
    27    13    17 1
    28    12     8 1
    29     4     3 ar
    30     9     8 1
    31     8    47 1
    32     2    26 1
    33     2    27 1
    34     3    28 1
    35     4    29 1
    36     5    30 1
    37     5    31 1
    38     6    32 1
    39     6    33 1
    40     6    34 1
    41    49    35 1
    42    49    36 1
    43    49    37 1
    44     9    38 1
    45    15    39 1
    46    17    40 1
    47    19    41 1
    48    20    42 1
    49    25    43 1
    50    47    44 1
    51    47    45 1
    52    47    46 1
@<TRIPOS>SUBSTRUCTURE
     1 3SM         1 TEMP              0 ****  ****    0 ROOT
