@<TRIPOS>MOLECULE
molecule
   59    62     1     0     0
SMALL
bcc


@<TRIPOS>ATOM
      1 C14          0.0000     0.0000     0.0000 ca         1 3SN       0.169900
      2 C5          -0.9280     1.0050     5.8330 c3         1 3SN       0.105000
      3 C6          -0.2820     1.1390     4.4510 c3         1 3SN       0.145300
      4 C11          1.3930     0.0030     2.3940 ca         1 3SN      -0.167000
      5 C8          -2.1420     0.0050     3.3840 c3         1 3SN       0.145300
      6 C9          -2.8650    -0.1750     4.7240 c3         1 3SN       0.105000
      7 C10          0.0040     0.0040     2.4000 ca         1 3SN       0.138600
      8 C12          2.0790     0.0000     1.1950 ca         1 3SN      -0.018000
      9 C13          1.3850     0.0000     0.0000 ca         1 3SN      -0.192300
     10 C1          -4.7290     1.4610     6.1400 c3         1 3SN      -0.170100
     11 O3          -2.8280     2.4760     7.1020 o          1 3SN      -0.608100
     12 N4          -2.3810     0.8520     5.6570 n          1 3SN      -0.499800
     13 N7          -0.6910     0.0050     3.6110 nh         1 3SN      -0.596000
     14 C15         -0.6920     0.0020     1.1980 ca         1 3SN      -0.235000
     15 F16         -0.6750     0.0050    -1.1700 f          1 3SN      -0.138900
     16 C17          2.1370    -0.0020    -1.3060 c3         1 3SN       0.294100
     17 N18          2.0390     1.3210    -1.9280 n3         1 3SN      -0.798500
     18 C19          1.3020     1.4870    -3.1820 cy         1 3SN       0.211500
     19 C20          1.9600     0.7830    -4.3820 cy         1 3SN      -0.112900
     20 C21          0.5420     0.3820    -4.8240 cy         1 3SN      -0.109400
     21 C22          0.1320     0.5020    -3.3450 cy         1 3SN      -0.112900
     22 S23          2.7620     2.6280    -1.2130 sy         1 3SN       1.425200
     23 O24          2.0700     3.7760    -1.6830 o          1 3SN      -0.637300
     24 O25          2.8930     2.3090     0.1660 o          1 3SN      -0.637300
     25 C26          4.3990     2.7360    -1.8560 ca         1 3SN      -0.313500
     26 C27          4.6470     3.4800    -2.9940 ca         1 3SN      -0.028500
     27 C28          5.9310     3.5650    -3.4980 ca         1 3SN      -0.151000
     28 C29          6.9670     2.9040    -2.8660 ca         1 3SN      -0.075000
     29 C30          6.7190     2.1590    -1.7280 ca         1 3SN      -0.151000
     30 C31          5.4360     2.0790    -1.2200 ca         1 3SN      -0.028500
     31 H1          -0.7240     1.8950     6.4170 h1         1 3SN       0.064450
     32 H2          -0.5290     0.1330     6.3370 h1         1 3SN       0.064450
     33 H3           0.7960     1.1390     4.5550 h1         1 3SN       0.054700
     34 H4          -0.6060     2.0640     3.9900 h1         1 3SN       0.054700
     35 H5           1.9380     0.0030     3.3310 ha         1 3SN       0.142000
     36 H6          -2.4040    -0.8100     2.7210 h1         1 3SN       0.054700
     37 H7          -2.4370     0.9480     2.9400 h1         1 3SN       0.054700
     38 H8          -2.6500    -1.1590     5.1230 h1         1 3SN       0.064450
     39 H9          -3.9330    -0.0600     4.5790 h1         1 3SN       0.064450
     40 H10          3.1630    -0.0000     1.1920 ha         1 3SN       0.144000
     41 H11         -4.9950     1.7390     5.1280 hc         1 3SN       0.060367
     42 H12         -4.9940     0.4250     6.3110 hc         1 3SN       0.060367
     43 H13         -5.2650     2.0910     6.8400 hc         1 3SN       0.060367
     44 H14         -1.7750     0.0030     1.1980 ha         1 3SN       0.148000
     45 H15          3.1790    -0.2390    -1.1230 h1         1 3SN       0.058700
     46 H16          1.7090    -0.7460    -1.9680 h1         1 3SN       0.058700
     47 H17          1.0210     2.5100    -3.4010 h1         1 3SN       0.104700
     48 H18          2.5690    -0.0650    -4.0940 hc         1 3SN       0.063200
     49 H19          2.4380     1.4720    -5.0670 hc         1 3SN       0.063200
     50 H20          0.4860    -0.6330    -5.1980 hc         1 3SN       0.055700
     51 H21          0.0700     1.1240    -5.4560 hc         1 3SN       0.055700
     52 H22         -0.8360     0.9690    -3.2100 hc         1 3SN       0.063200
     53 H23          0.2730    -0.4180    -2.7900 hc         1 3SN       0.063200
     54 H24          3.8340     3.9980    -3.4890 ha         1 3SN       0.147500
     55 H25          6.1250     4.1490    -4.3900 ha         1 3SN       0.135500
     56 H26          7.9730     2.9680    -3.2630 ha         1 3SN       0.133000
     57 H27          7.5320     1.6430    -1.2310 ha         1 3SN       0.135500
     58 H28          5.2420     1.4960    -0.3280 ha         1 3SN       0.147500
     59 C2          -3.2450     1.6340     6.3350 c          1 3SN       0.662100
@<TRIPOS>BOND
     1    15     1 1   
     2     6     5 1   
     3     6    12 1   
     4    14     1 ar  
     5    14     7 ar  
     6    13     7 1   
     7    13     5 1   
     8    13     3 1   
     9     1     9 ar  
    10     7     4 ar  
    11     9    16 1   
    12     9     8 ar  
    13     4     8 ar  
    14     2    12 1   
    15     2     3 1   
    16    29    30 ar  
    17    29    28 ar  
    18    16    17 1   
    19    12    59 1   
    20    30    25 ar  
    21    28    27 ar  
    22    59    10 1   
    23    59    11 2   
    24    23    22 2   
    25    17    22 1   
    26    17    18 1   
    27    25    22 1   
    28    25    26 ar  
    29    22    24 2   
    30    27    26 ar  
    31    21    18 1   
    32    21    20 1   
    33    19    18 1   
    34    19    20 1   
    35     2    31 1   
    36     2    32 1   
    37     3    33 1   
    38     3    34 1   
    39     4    35 1   
    40     5    36 1   
    41     5    37 1   
    42     6    38 1   
    43     6    39 1   
    44     8    40 1   
    45    10    41 1   
    46    10    42 1   
    47    10    43 1   
    48    14    44 1   
    49    16    45 1   
    50    16    46 1   
    51    18    47 1   
    52    19    48 1   
    53    19    49 1   
    54    20    50 1   
    55    20    51 1   
    56    21    52 1   
    57    21    53 1   
    58    26    54 1   
    59    27    55 1   
    60    28    56 1   
    61    29    57 1   
    62    30    58 1   
@<TRIPOS>SUBSTRUCTURE
     1 3SN         1 TEMP              0 ****  ****    0 ROOT
