@<TRIPOS>MOLECULE
molecule
   45    47     1     0     0
SMALL
bcc


@<TRIPOS>ATOM
      1 O01          0.0000     0.0000     0.0000 oh         1 3SO      -0.528100
      2 C02          1.3570     0.0000     0.0000 ca         1 3SO      -0.031200
      3 C03          2.0620     0.0000     1.1950 ca         1 3SO       0.357600
      4 N04          3.3800    -0.0020     1.2000 nb         1 3SO      -0.700000
      5 C05          4.0880    -0.0020     0.0870 ca         1 3SO       0.446200
      6 C06          3.4750    -0.0010    -1.1470 ca         1 3SO      -0.127600
      7 C07          4.2970    -0.0020    -2.4100 c3         1 3SO       0.244700
      8 O08          5.6860    -0.0030    -2.0750 os         1 3SO      -0.575200
      9 P09          6.8560    -0.0040    -3.1800 p5         1 3SO       1.162900
     10 O10          6.6650     1.1400    -4.1010 o          1 3SO      -0.899167
     11 O11          8.2850     0.1280    -2.4500 o          1 3SO      -0.899167
     12 O12          6.8040    -1.3790    -4.0150 o          1 3SO      -0.899167
     13 C13          2.0740    -0.0070    -1.2120 ca         1 3SO      -0.111800
     14 C14          1.3740    -0.0070    -2.5050 ce         1 3SO       0.034800
     15 C15          0.3930    -0.9080    -2.7440 cf         1 3SO      -0.300200
     16 C16         -0.2780    -0.9070    -3.9840 c          1 3SO       0.567300
     17 C17         -1.3710    -1.9100    -4.2500 c3         1 3SO      -0.105200
     18 C18         -1.9200    -1.6980    -5.6370 cd         1 3SO      -0.117400
     19 C19         -2.9960    -0.9650    -5.9660 cc         1 3SO      -0.110100
     20 N20         -3.1900    -1.0050    -7.3200 na         1 3SO      -0.190400
     21 C21         -2.2210    -1.7850    -7.9100 ca         1 3SO      -0.039200
     22 C22         -1.3800    -2.2490    -6.8830 ca         1 3SO      -0.084800
     23 C23         -0.2920    -3.0680    -7.1890 ca         1 3SO      -0.057000
     24 C24         -0.0470    -3.4130    -8.4890 ca         1 3SO      -0.159000
     25 C25         -0.8730    -2.9550    -9.5070 ca         1 3SO      -0.111000
     26 C26         -1.9560    -2.1520    -9.2260 ca         1 3SO      -0.159000
     27 O27          0.0250    -0.0990    -4.8380 o          1 3SO      -0.533100
     28 C28          1.3140     0.0010     2.5020 c3         1 3SO      -0.126400
     29 H1          -0.3140     0.8860     0.0780 ho         1 3SO       0.401000
     30 H2           5.1700    -0.0030     0.1440 h4         1 3SO       0.088100
     31 H3           4.0670     0.8830    -2.9910 h1         1 3SO       0.043200
     32 H4           4.0650    -0.8860    -2.9920 h1         1 3SO       0.043200
     33 H7           1.6440     0.7150    -3.2660 ha         1 3SO       0.167000
     34 H8           0.1230    -1.6300    -1.9820 ha         1 3SO       0.139000
     35 H9          -2.1640    -1.7810    -3.5240 hc         1 3SO       0.061700
     36 H10         -0.9680    -2.9130    -4.1710 hc         1 3SO       0.061700
     37 H11         -3.6170    -0.4220    -5.2640 h4         1 3SO       0.157000
     38 H12         -3.9280    -0.5370    -7.8090 hn         1 3SO       0.282700
     39 H13          0.3560    -3.4290    -6.4000 ha         1 3SO       0.144000
     40 H14          0.8010    -4.0440    -8.7270 ha         1 3SO       0.132000
     41 H15         -0.6660    -3.2370   -10.5320 ha         1 3SO       0.118000
     42 H16         -2.5940    -1.8000   -10.0270 ha         1 3SO       0.110000
     43 H17          0.7720     0.9330     2.6070 hc         1 3SO       0.035033
     44 H18          2.0160    -0.1020     3.3200 hc         1 3SO       0.035033
     45 H19          0.6150    -0.8260     2.5190 hc         1 3SO       0.035033
@<TRIPOS>BOND
     1    10     9 1   
     2    12     9 1   
     3     9    11 1   
     4     9     8 1   
     5     5     4 ar  
     6     5     6 ar  
     7     7     8 1   
     8     7     6 1   
     9     4     3 ar  
    10     6    13 ar  
    11     3    28 1   
    12     3     2 ar  
    13    13     2 ar  
    14    13    14 1   
    15     2     1 1   
    16    14    15 2   
    17    15    16 1   
    18    17    16 1   
    19    17    18 1   
    20    19    18 2   
    21    19    20 1   
    22    16    27 2   
    23    18    22 1   
    24    20    21 1   
    25    22    21 ar  
    26    22    23 ar  
    27    21    26 ar  
    28    23    24 ar  
    29    26    25 ar  
    30    24    25 ar  
    31     1    29 1   
    32     5    30 1   
    33     7    31 1   
    34     7    32 1   
    35    14    33 1   
    36    15    34 1   
    37    17    35 1   
    38    17    36 1   
    39    19    37 1   
    40    20    38 1   
    41    23    39 1   
    42    24    40 1   
    43    25    41 1   
    44    26    42 1   
    45    28    43 1   
    46    28    44 1   
    47    28    45 1   
@<TRIPOS>SUBSTRUCTURE
     1 3SO         1 TEMP              0 ****  ****    0 ROOT
