@<TRIPOS>MOLECULE
3SO
   45    47     1     0     0
SMALL
bcc


@<TRIPOS>ATOM
      1 O01         0.1550    0.8290    0.8150 oh        1 3SO     -0.521100
      2 C02         1.3550    0.2860    0.4050 ca        1 3SO      0.013800
      3 C03         2.2800   -0.0590    1.4240 ca        1 3SO      0.318600
      4 N04         3.4890   -0.6020    1.1300 nb        1 3SO     -0.663000
      5 C05         3.8030   -0.7970   -0.1560 ca        1 3SO      0.374200
      6 C06         2.9560   -0.4680   -1.2420 ca        1 3SO     -0.074600
      7 C07         3.3470   -0.6770   -2.6680 c3        1 3SO      0.197700
      8 O08         4.4650   -1.4520   -2.8450 os        1 3SO     -0.552200
      9 P09         4.7450   -1.5140   -4.5860 p5        1 3SO      1.328900
     10 O10         5.0620   -0.0690   -4.8460 o         1 3SO     -0.928833
     11 O11         5.8370   -2.5270   -4.7190 o         1 3SO     -0.928833
     12 O12         3.3650   -1.9200   -5.0620 o         1 3SO     -0.928833
     13 C13         1.6910    0.0800   -0.9460 ca        1 3SO     -0.173800
     14 C14         0.8230    0.3660   -2.0760 ce        1 3SO     -0.017200
     15 C15        -0.4400   -0.0560   -2.2240 cf        1 3SO     -0.296200
     16 C16        -1.1600    0.0790   -3.5060 c         1 3SO      0.589300
     17 C17        -0.3220   -0.1910   -4.7290 c3        1 3SO     -0.133200
     18 C18        -1.0260   -0.8310   -5.8460 cc        1 3SO     -0.082400
     19 C19        -2.3420   -0.6790   -6.2480 cd        1 3SO     -0.161100
     20 N20        -2.6370   -1.5300   -7.3440 na        1 3SO     -0.190400
     21 C21        -1.4120   -2.1270   -7.7300 ca        1 3SO     -0.075200
     22 C22        -0.3920   -1.7600   -6.7770 ca        1 3SO     -0.100800
     23 C23         0.8930   -2.2910   -6.8780 ca        1 3SO     -0.051000
     24 C24         1.1510   -3.1650   -7.9360 ca        1 3SO     -0.158000
     25 C25         0.1650   -3.5090   -8.8660 ca        1 3SO     -0.127000
     26 C26        -1.1300   -3.0020   -8.7820 ca        1 3SO     -0.190000
     27 O27        -2.3610    0.3850   -3.5440 o         1 3SO     -0.589100
     28 C28         1.8870    0.1800    2.8430 c3        1 3SO     -0.114400
     29 H1         -0.3600    1.0260    0.0180 ho        1 3SO      0.417000
     30 H2          4.7880   -1.2510   -0.3880 h4        1 3SO      0.065100
     31 H3          3.5230    0.3460   -3.1320 h1        1 3SO      0.049700
     32 H4          2.4740   -1.1580   -3.2140 h1        1 3SO      0.049700
     33 H7          1.3330    0.8990   -2.9080 ha        1 3SO      0.158000
     34 H8         -0.9890   -0.5880   -1.4320 ha        1 3SO      0.137000
     35 H9          0.0930    0.8020   -5.0710 hc        1 3SO      0.111200
     36 H10         0.5740   -0.8280   -4.4540 hc        1 3SO      0.111200
     37 H11        -3.1310   -0.0860   -5.7810 h4        1 3SO      0.167000
     38 H12        -3.2630   -1.2160   -8.0440 hn        1 3SO      0.245700
     39 H13         1.7110   -2.0440   -6.1440 ha        1 3SO      0.282000
     40 H14         2.1640   -3.5870   -8.0270 ha        1 3SO      0.149000
     41 H15         0.4150   -4.1980   -9.6870 ha        1 3SO      0.101000
     42 H16        -1.8990   -3.2840   -9.5110 ha        1 3SO      0.102000
     43 H17         1.5730    1.2460    2.9640 hc        1 3SO      0.030700
     44 H18         2.7190   -0.0370    3.5550 hc        1 3SO      0.030700
     45 H19         1.0140   -0.4690    3.0980 hc        1 3SO      0.030700
@<TRIPOS>BOND
     1    1    2 1   
     2    1   29 1   
     3    2    3 ar  
     4    2   13 ar  
     5    3    4 ar  
     6    3   28 1   
     7    4    5 ar  
     8    5    6 ar  
     9    5   30 1   
    10    6    7 1   
    11    6   13 ar  
    12    7    8 1   
    13    7   31 1   
    14    7   32 1   
    15    8    9 1   
    16    9   10 1   
    17    9   11 1   
    18    9   12 1   
    19   13   14 1   
    20   14   15 2   
    21   14   33 1   
    22   15   16 1   
    23   15   34 1   
    24   16   17 1   
    25   16   27 2   
    26   17   18 1   
    27   17   35 1   
    28   17   36 1   
    29   18   19 2   
    30   18   22 1   
    31   19   20 1   
    32   19   37 1   
    33   20   21 1   
    34   20   38 1   
    35   21   22 ar  
    36   21   26 ar  
    37   22   23 ar  
    38   23   24 ar  
    39   23   39 1   
    40   24   25 ar  
    41   24   40 1   
    42   25   26 ar  
    43   25   41 1   
    44   26   42 1   
    45   28   43 1   
    46   28   44 1   
    47   28   45 1   
@<TRIPOS>SUBSTRUCTURE
     1 3SO         1 TEMP              0 ****  ****    0 ROOT
