@<TRIPOS>MOLECULE
3SQ
   19    20     1     0     0
SMALL
bcc


@<TRIPOS>ATOM
      1 C2         -0.0410    0.0010   -0.0180 cc        1 3SQ     -0.238600
      2 C4          1.3750   -0.0020   -0.0210 cd        1 3SQ      0.352800
      3 C5          0.7380   -0.0020    2.0840 cc        1 3SQ      0.392400
      4 C6          2.2370   -0.0030   -1.1860 ca        1 3SQ     -0.111500
      5 C7          3.6340    0.0010   -1.0500 ca        1 3SQ     -0.093000
      6 C11         1.6770   -0.0090   -2.4730 ca        1 3SQ     -0.093000
      7 C10         2.4860   -0.0100   -3.6040 ca        1 3SQ     -0.168500
      8 C9          3.8840   -0.0060   -3.4560 ca        1 3SQ      0.120900
      9 C8          4.4570   -0.0010   -2.1710 ca        1 3SQ     -0.168500
     10 N1         -0.4330    0.0010    1.3160 na        1 3SQ     -0.320900
     11 N3          1.8390   -0.0040    1.3080 nd        1 3SQ     -0.658000
     12 F           4.6800   -0.0070   -4.5530 f         1 3SQ     -0.142900
     13 H1         -0.7580    0.0030   -0.8370 h4        1 3SQ      0.179000
     14 H2          0.7300   -0.0030    3.1790 h5        1 3SQ      0.063100
     15 H3          4.0930    0.0050   -0.0480 ha        1 3SQ      0.144500
     16 H4          0.5840   -0.0120   -2.5980 ha        1 3SQ      0.144500
     17 H5          2.0440   -0.0140   -4.6110 ha        1 3SQ      0.147000
     18 H6          5.5510    0.0030   -2.0630 ha        1 3SQ      0.147000
     19 H7         -1.3590    0.0020    1.6510 hn        1 3SQ      0.302700
@<TRIPOS>BOND
     1    1    2 2   
     2    1   10 1   
     3    1   13 1   
     4    2    4 1   
     5    2   11 1   
     6    3   10 1   
     7    3   11 2   
     8    3   14 1   
     9    4    5 ar  
    10    4    6 ar  
    11    5    9 ar  
    12    5   15 1   
    13    6    7 ar  
    14    6   16 1   
    15    7    8 ar  
    16    7   17 1   
    17    8    9 ar  
    18    8   12 1   
    19    9   18 1   
    20   10   19 1   
@<TRIPOS>SUBSTRUCTURE
     1 3SQ         1 TEMP              0 ****  ****    0 ROOT
