@<TRIPOS>MOLECULE
molecule
   19    20     1     0     0
SMALL
bcc


@<TRIPOS>ATOM
      1 C2           0.0000     0.0000     0.0000 cc         1 3SQ      -0.260600
      2 C4           1.3590     0.0000     0.0000 cd         1 3SQ       0.369800
      3 C5           0.7270    -0.0060     2.0670 cc         1 3SQ       0.400400
      4 C6           2.2330     0.0010    -1.1990 ca         1 3SQ      -0.113500
      5 C7           3.6190     0.0010    -1.0530 ca         1 3SQ      -0.089000
      6 C11          1.6710    -0.0050    -2.4740 ca         1 3SQ      -0.089000
      7 C10          2.4880    -0.0100    -3.5860 ca         1 3SQ      -0.169500
      8 C9           3.8660    -0.0090    -3.4360 ca         1 3SQ       0.129900
      9 C8           4.4290     0.0020    -2.1710 ca         1 3SQ      -0.169500
     10 N1          -0.3920    -0.0010     1.3100 na         1 3SQ      -0.295900
     11 N3           1.7690     0.0000     1.2840 nd         1 3SQ      -0.691000
     12 F            4.6610    -0.0150    -4.5270 f          1 3SQ      -0.143900
     13 H1          -0.6470     0.0040    -0.8690 h4         1 3SQ       0.177000
     14 H2           0.7540    -0.0080     3.1500 h5         1 3SQ       0.066100
     15 H3           4.0600     0.0100    -0.0640 ha         1 3SQ       0.145000
     16 H4           0.5950    -0.0050    -2.5930 ha         1 3SQ       0.145000
     17 H5           2.0520    -0.0160    -4.5770 ha         1 3SQ       0.144500
     18 H6           5.5060     0.0020    -2.0580 ha         1 3SQ       0.144500
     19 H7          -1.3340    -0.0020     1.6470 hn         1 3SQ       0.300700
@<TRIPOS>BOND
     1    12     8 1
     2     7     8 ar
     3     7     6 ar
     4     8     9 ar
     5     6     4 ar
     6     9     5 ar
     7     4     5 ar
     8     4     2 1
     9     2     1 2
    10     2    11 1
    11     1    10 1
    12    11     3 2
    13    10     3 1
    14     1    13 1
    15     3    14 1
    16     5    15 1
    17     6    16 1
    18     7    17 1
    19     9    18 1
    20    10    19 1
@<TRIPOS>SUBSTRUCTURE
     1 3SQ         1 TEMP              0 ****  ****    0 ROOT
