@<TRIPOS>MOLECULE
3SR
   62    56     1     0     0
SMALL
bcc


@<TRIPOS>ATOM
      1 C1          0.0930   -0.8010   -0.9930 c2        1 3SR      0.409000
      2 C2          1.1040    0.0120   -0.2960 c2        1 3SR     -0.130000
      3 C3          1.0740    0.3590    1.0830 c2        1 3SR     -0.059000
      4 C5         -0.6210   -1.3710    1.3030 c2        1 3SR      0.090000
      5 C16         4.3100   -1.2330   -3.4220 c3        1 3SR     -0.168000
      6 C17         5.8190   -1.2220   -3.2220 c3        1 3SR     -0.193500
      7 C18         3.8410   -2.6240   -3.8330 c3        1 3SR     -0.193500
      8 C21         9.7880    3.2620    3.1530 c1        1 3SR     -0.230500
      9 O32        10.3800    3.9540   -1.0690 o         1 3SR     -0.332000
     10 C27         9.1320    3.2050   -2.9100 c1        1 3SR     -0.202000
     11 O31         6.8790    1.8480   -1.9680 o         1 3SR     -0.419000
     12 C30         5.6910    2.4010   -4.9870 c1        1 3SR     -0.230500
     13 C29         4.9710    2.6510   -5.9090 c1        1 3SR     -0.230500
     14 C28         8.9530    3.1360   -4.0900 c1        1 3SR     -0.094000
     15 N23         8.5560    2.6890   -0.5870 n         1 3SR     -0.378000
     16 C22        10.2770    3.6500    2.1320 c1        1 3SR     -0.230500
     17 C24         7.3710    2.0120   -0.8330 c2        1 3SR      0.323000
     18 C25         5.5650    3.5960   -0.6800 c1        1 3SR      0.002000
     19 N20         4.3750    2.9630   -0.6270 n3        1 3SR     -0.224000
     20 C8          2.8990    1.2400    0.2620 c2        1 3SR     -0.113000
     21 N7          2.2420    0.6160   -0.8260 na        1 3SR     -0.075000
     22 C14         2.8040    0.3090   -2.1240 c3        1 3SR     -0.116000
     23 C15         3.6560   -0.8910   -2.1540 c1        1 3SR     -0.016000
     24 N9          2.1920    1.1170    1.4280 n2        1 3SR     -0.063000
     25 N4         -0.0140   -0.0160    1.9630 n4        1 3SR      0.249000
     26 C12        -0.9610    0.9530    2.1540 c2        1 3SR     -0.576000
     27 O11        -1.0730   -2.2330    2.0610 o         1 3SR     -0.289000
     28 N6         -0.8300   -1.4820   -0.1280 n         1 3SR     -0.222000
     29 C13        -1.8040   -2.2110   -0.6730 c1        1 3SR     -0.037000
     30 O10         0.0460   -0.8840   -2.2240 o         1 3SR     -0.262000
     31 H1          4.0650   -0.5170   -4.2620 hc        1 3SR      0.072000
     32 H2          6.1820   -0.1790   -3.0420 hc        1 3SR      0.090667
     33 H3          6.3140   -1.6220   -4.1400 hc        1 3SR      0.090667
     34 H4          6.1030   -1.8600   -2.3510 hc        1 3SR      0.090667
     35 H5          4.0870   -3.3680   -3.0380 hc        1 3SR      0.090667
     36 H6          4.3550   -2.9200   -4.7790 hc        1 3SR      0.090667
     37 H7          2.7390   -2.6300   -4.0050 hc        1 3SR      0.090667
     38 H8          5.1900   -0.2480   -0.4450 ha        1 3SR      0.004625
     39 H9          5.4180    0.1530   -0.9460 ha        1 3SR      0.004625
     40 H10         9.3570    2.9200    4.0600 ha        1 3SR      0.230250
     41 H11         3.6070    3.2670   -1.2160 hn        1 3SR      0.155000
     42 H12         6.3360    2.1780   -4.1670 ha        1 3SR      0.230250
     43 H13         4.3370    2.8730   -6.7310 ha        1 3SR      0.230250
     44 H14         8.7870    3.0720   -5.1380 ha        1 3SR      0.234000
     45 H15         8.8080    2.8280    0.3750 hn        1 3SR      0.258000
     46 H16        10.7170    4.0000    1.2260 ha        1 3SR      0.230250
     47 H17         3.0460    5.4350   -2.0500 ha        1 3SR      0.004625
     48 H18         3.7110    5.5560   -2.0030 ha        1 3SR      0.004625
     49 H19         6.9070    1.5810    0.0900 h5        1 3SR      0.170000
     50 H20         5.5890    4.4380   -1.4090 ha        1 3SR      0.055000
     51 H22         2.0680    2.9840   -2.9320 ha        1 3SR      0.004625
     52 H23         2.1770    3.6510   -2.9890 ha        1 3SR      0.004625
     53 H24         3.3570    1.2280   -2.4850 h1        1 3SR      0.154500
     54 H25         1.9270    0.1360   -2.8340 h1        1 3SR      0.154500
     55 H26         0.3470   -0.3820    2.8530 hn        1 3SR      0.259000
     56 H27        -1.1710    1.6750    1.3650 hx        1 3SR      0.149500
     57 H28        -1.6640    0.8160    2.9790 hx        1 3SR      0.149500
     58 H29        -2.4590   -2.7370    0.0560 ha        1 3SR      0.069000
     59 H30        -3.8170   -0.8040   -0.7590 ha        1 3SR      0.004625
     60 H31        -3.6230   -0.8470   -1.4080 ha        1 3SR      0.004625
     61 C19         4.2180    1.9190    0.2280 c1        1 3SR      0.199000
     62 C26         9.4010    3.3200   -1.5100 c2        1 3SR      0.434000
@<TRIPOS>BOND
     1    1    2 1
     2    1   28 1
     3    1   30 1
     4    2    3 1
     5    2   21 1
     6    3   24 1
     7    3   25 1
     8    4   25 1
     9    4   27 1
    10    4   28 1
    11    5    6 1
    12    5    7 1
    13    5   23 1
    14    5   31 1
    15    6   32 1
    16    6   33 1
    17    6   34 1
    18    7   35 1
    19    7   36 1
    20    7   37 1
    21    8   16 1
    22    8   40 1
    23    9   62 1
    24   10   14 1
    25   10   62 1
    26   11   17 1
    27   12   13 1
    28   12   42 1
    29   13   43 1
    30   14   44 1
    31   15   17 1
    32   15   45 1
    33   15   62 1
    34   16   46 1
    35   17   49 1
    36   18   19 1
    37   18   50 1
    38   19   41 1
    39   19   61 1
    40   20   21 1
    41   20   24 1
    42   20   61 1
    43   21   22 1
    44   22   23 1
    45   22   53 1
    46   22   54 1
    47   25   26 1
    48   25   55 1
    49   26   56 1
    50   26   57 1
    51   28   29 1
    52   29   58 1
    53   38   39 1
    54   47   48 1
    55   51   52 1
    56   59   60 1
@<TRIPOS>SUBSTRUCTURE
     1 3SR         1 TEMP              0 ****  ****    0 ROOT
