@<TRIPOS>MOLECULE
molecule
   12    11     1     0     0
SMALL
bcc


@<TRIPOS>ATOM
      1 C1           0.0000     0.0000     0.0000 c3         1 3SS      -0.191400
      2 C2           1.5300     0.0000     0.0000 c3         1 3SS       0.089700
      3 C4          -0.5030     0.0000     1.4200 c          1 3SS       0.892600
      4 O5           0.2820    -0.0000     2.3400 o          1 3SS      -0.849800
      5 O6          -1.8230    -0.0000     1.6650 o          1 3SS      -0.849800
      6 S7           2.1350    -0.0000    -1.7100 ss         1 3SS      -0.289100
      7 S1           1.6450     1.8760    -2.3730 sh         1 3SS      -0.296800
      8 H1          -0.3610     0.8840    -0.5110 hc         1 3SS       0.048200
      9 H2          -0.3610    -0.8840    -0.5110 hc         1 3SS       0.048200
     10 H3           1.8910    -0.8840     0.5110 h1         1 3SS       0.088700
     11 H4           1.8910     0.8850     0.5110 h1         1 3SS       0.088700
     12 H6           2.3050     2.1350    -3.4950 hs         1 3SS       0.219800
@<TRIPOS>BOND
     1     4     3 1   
     2     7     6 1   
     3     3     1 1   
     4     3     5 1   
     5     1     2 1   
     6     2     6 1   
     7     1     8 1   
     8     1     9 1   
     9     2    10 1   
    10     2    11 1   
    11     7    12 1   
@<TRIPOS>SUBSTRUCTURE
     1 3SS         1 TEMP              0 ****  ****    0 ROOT
