@<TRIPOS>MOLECULE
3SS
   12    11     1     0     0
SMALL
bcc


@<TRIPOS>ATOM
      1 C1         -0.0280    0.0040    0.0130 c3        1 3SS     -0.210400
      2 C2          1.4410    0.2610   -0.0870 c3        1 3SS      0.034700
      3 C4         -0.4510   -0.1240    1.4970 c         1 3SS      0.914600
      4 O5          0.3870   -0.6020    2.3150 o         1 3SS     -0.841300
      5 O6         -1.6180    0.2450    1.8000 o         1 3SS     -0.841300
      6 S7          2.2310   -0.0620   -1.6370 ss        1 3SS     -0.215100
      7 S1          1.5120    1.2930   -3.0840 sh        1 3SS     -0.295800
      8 H1         -0.2990   -0.9550   -0.4950 hc        1 3SS      0.042200
      9 H2         -0.6150    0.8290   -0.4630 hc        1 3SS      0.042200
     10 H3          1.9860   -0.4710    0.5810 h1        1 3SS      0.090200
     11 H4          1.6820    1.2920    0.2620 h1        1 3SS      0.090200
     12 H6          2.3650    2.2830   -2.8820 hs        1 3SS      0.190800
@<TRIPOS>BOND
     1    1    2 1   
     2    1    3 1   
     3    1    8 1   
     4    1    9 1   
     5    2    6 1   
     6    2   10 1   
     7    2   11 1   
     8    3    4 1   
     9    3    5 1   
    10    6    7 1   
    11    7   12 1   
@<TRIPOS>SUBSTRUCTURE
     1 3SS         1 TEMP              0 ****  ****    0 ROOT
