@<TRIPOS>MOLECULE
molecule
   59    61     1     0     0
SMALL
bcc


@<TRIPOS>ATOM
      1 C1           0.0000     0.0000     0.0000 c          1 3ST       0.746100
      2 C2           1.4120     0.0000     0.0000 cc         1 3ST      -0.345200
      3 C3           2.0880     0.0000     1.2130 cc         1 3ST       0.497200
      4 C8           3.5740    -0.0010    -0.3600 cd         1 3ST       0.440800
      5 N9           2.3800    -0.0010    -0.9830 na         1 3ST      -0.106900
      6 C10          2.1530    -0.0020    -2.4310 c3         1 3ST       0.031300
      7 C11          2.0730    -1.4450    -2.9330 c3         1 3ST      -0.095400
      8 C15          4.9130    -0.0010    -1.0510 c3         1 3ST       0.150500
      9 C17          5.6070     2.0670    -0.0020 c3         1 3ST       0.152800
     10 C18          5.9170     3.5420    -0.2660 c3         1 3ST      -0.074900
     11 C20          6.8640     2.8840    -2.4800 c3         1 3ST      -0.074900
     12 C21          6.5270     1.4290    -2.1510 c3         1 3ST       0.152800
     13 C22          8.3380     3.0450    -0.4900 c          1 3ST       0.486100
     14 O28         -0.6170     0.0000    -1.0510 o          1 3ST      -0.625500
     15 N6          -0.6590    -0.0050     1.1780 n          1 3ST      -0.465400
     16 C5           0.0090    -0.0050     2.3450 c          1 3ST       0.818500
     17 O26         -0.6180    -0.0100     3.3860 o          1 3ST      -0.639500
     18 N4           1.3550    -0.0000     2.3880 n          1 3ST      -0.426300
     19 C27          2.0450     0.0000     3.6800 c3         1 3ST       0.108300
     20 N7           3.3950    -0.0000     0.9370 nc         1 3ST      -0.746000
     21 C12          1.8360    -1.4460    -4.4450 c3         1 3ST      -0.075700
     22 N16          5.3490     1.3840    -1.2750 n3         1 3ST      -0.727600
     23 C19          7.1410     3.6460    -1.1800 c3         1 3ST      -0.153700
     24 H1           1.2230     0.5080    -2.6510 h1         1 3ST       0.082700
     25 H2           2.9700     0.5080    -2.9250 h1         1 3ST       0.082700
     26 H3           3.0030    -1.9560    -2.7140 hc         1 3ST       0.057200
     27 H4           1.2560    -1.9550    -2.4390 hc         1 3ST       0.057200
     28 H5           3.9580    -1.2180    -4.7040 hc         1 3ST       0.037367
     29 H6           3.0210     0.2410    -5.0530 hc         1 3ST       0.037367
     30 H7           3.0250    -1.1030    -6.2030 hc         1 3ST       0.037367
     31 H8           1.4430    -2.8820    -5.9950 hc         1 3ST       0.037367
     32 H9           2.5240    -3.4630    -4.7210 hc         1 3ST       0.037367
     33 H10          0.7880    -3.3220    -4.4110 hc         1 3ST       0.037367
     34 H11          4.8280    -0.5120    -2.0020 h1         1 3ST       0.068700
     35 H12          5.6390    -0.5130    -0.4300 h1         1 3ST       0.068700
     36 H13          6.4540     1.6040     0.4890 h1         1 3ST       0.054700
     37 H14          4.7310     1.9920     0.6310 h1         1 3ST       0.054700
     38 H15          5.0660     4.0090    -0.7490 hc         1 3ST       0.077950
     39 H16          6.1250     4.0410     0.6730 hc         1 3ST       0.077950
     40 H17          6.0260     3.3410    -2.9930 hc         1 3ST       0.077950
     41 H18          7.7440     2.9170    -3.1110 hc         1 3ST       0.077950
     42 H19          6.3150     0.8930    -3.0680 h1         1 3ST       0.054700
     43 H20          7.3690     0.9710    -1.6460 h1         1 3ST       0.054700
     44 H21         -2.4860    -0.7310     0.4610 h1         1 3ST       0.067367
     45 H22         -2.4790    -0.2830     2.1720 h1         1 3ST       0.067367
     46 H23         -2.4900     0.9750     0.9290 h1         1 3ST       0.067367
     47 H24          2.0200     0.9970     4.1030 h1         1 3ST       0.058367
     48 H25          1.5500    -0.6900     4.3540 h1         1 3ST       0.058367
     49 H26          3.0740    -0.3070     3.5410 h1         1 3ST       0.058367
     50 H27          0.9530    -0.8610    -4.6720 hc         1 3ST       0.063700
     51 H29          7.3340     4.6870    -1.4080 hc         1 3ST       0.095700
     52 H30          8.3870     3.0240     1.4380 hn         1 3ST       0.478133
     53 H31          8.4680     4.5080     0.7590 hn         1 3ST       0.478133
     54 C25         -2.1240    -0.0110     1.1850 c3         1 3ST       0.101300
     55 O24          8.9130     2.0990    -0.9860 o          1 3ST      -0.400100
     56 C13          3.0490    -0.8370    -5.1530 c3         1 3ST      -0.090100
     57 C14          1.6330    -2.8830    -4.9280 c3         1 3ST      -0.090100
     58 H233         9.7670     3.5170     0.7150 hn         1 3ST       0.478133
     59 N23          8.7680     3.5560     0.6810 nz         1 3ST      -0.684400
@<TRIPOS>BOND
     1    59    13 1   
     2    13    55 2   
     3    13    23 1   
     4    11    23 1   
     5    11    12 1   
     6    23    10 1   
     7    10     9 1   
     8    12    22 1   
     9    19    18 1   
    10    20     4 2   
    11    20     3 1   
    12     8    22 1   
    13     8     4 1   
    14    22     9 1   
    15     4     5 1   
    16    18     3 1   
    17    18    16 1   
    18     3     2 2   
    19    17    16 2   
    20    16    15 1   
    21     5     2 1   
    22     5     6 1   
    23     2     1 1   
    24     6     7 1   
    25    21     7 1   
    26    21    56 1   
    27    21    57 1   
    28    15     1 1   
    29    15    54 1   
    30     1    14 2   
    31     6    24 1   
    32     6    25 1   
    33     7    26 1   
    34     7    27 1   
    35    56    28 1   
    36    56    29 1   
    37    56    30 1   
    38    57    31 1   
    39    57    32 1   
    40    57    33 1   
    41     8    34 1   
    42     8    35 1   
    43     9    36 1   
    44     9    37 1   
    45    10    38 1   
    46    10    39 1   
    47    11    40 1   
    48    11    41 1   
    49    12    42 1   
    50    12    43 1   
    51    54    44 1   
    52    54    45 1   
    53    54    46 1   
    54    19    47 1   
    55    19    48 1   
    56    19    49 1   
    57    21    50 1   
    58    23    51 1   
    59    59    52 1   
    60    59    53 1   
    61    58    59 1   
@<TRIPOS>SUBSTRUCTURE
     1 3ST         1 TEMP              0 ****  ****    0 ROOT
