@<TRIPOS>MOLECULE
molecule
   23    24     1     0     0
SMALL
bcc


@<TRIPOS>ATOM
      1 OAM          0.0000     0.0000     0.0000 o          1 3SU      -0.829300
      2 CAL          1.3500     0.0000     0.0000 c          1 3SU       0.874800
      3 OAN          1.9580     0.0000     1.0530 o          1 3SU      -0.829300
      4 CAJ          2.0800    -0.0010    -1.2670 ce         1 3SU       0.027400
      5 SAP          1.1990    -0.0010    -2.7920 sh         1 3SU      -0.437400
      6 CAI          3.4380    -0.0010    -1.2670 ce         1 3SU      -0.103000
      7 CAH          4.1710     0.1750    -2.5240 cc         1 3SU      -0.093200
      8 CAE          5.3940    -0.5370    -2.9390 ca         1 3SU      -0.073800
      9 CAD          6.1920    -1.5140    -2.3480 ca         1 3SU      -0.068000
     10 CAC          7.3010    -1.9850    -3.0160 ca         1 3SU      -0.151000
     11 CAB          7.6250    -1.4910    -4.2720 ca         1 3SU      -0.006900
     12 Br           9.1510    -2.1500    -5.1730 br         1 3SU      -0.134100
     13 CAG          6.8430    -0.5230    -4.8690 ca         1 3SU      -0.126000
     14 CAF          5.7200    -0.0350    -4.2110 ca         1 3SU      -0.051200
     15 NAA          4.7690     0.9070    -4.5410 na         1 3SU      -0.182400
     16 CAK          3.8520     1.0250    -3.5440 cd         1 3SU      -0.080100
     17 H2           3.9770    -0.0010    -0.3280 ha         1 3SU       0.163000
     18 H4           5.9410    -1.9010    -1.3680 ha         1 3SU       0.146000
     19 H5           7.9240    -2.7440    -2.5580 ha         1 3SU       0.133000
     20 H6           7.1040    -0.1440    -5.8500 ha         1 3SU       0.126000
     21 H7           4.7520     1.4260    -5.3970 hn         1 3SU       0.286700
     22 H8           2.9990     1.6930    -3.5560 h4         1 3SU       0.190000
     23 H9           0.3300    -1.0040    -2.8010 hs         1 3SU       0.218800
@<TRIPOS>BOND
     1    12    11 1   
     2    10    11 ar  
     3    10     9 ar  
     4    11    13 ar  
     5     9     8 ar  
     6    13    14 ar  
     7     8    14 ar  
     8     8     7 1   
     9    14    15 1   
    10     3     2 1   
    11     6     7 1   
    12     6     4 2   
    13     7    16 2   
    14     2     4 1   
    15     2     1 1   
    16    15    16 1   
    17     4     5 1   
    18     6    17 1   
    19     9    18 1   
    20    10    19 1   
    21    13    20 1   
    22    15    21 1   
    23    16    22 1   
    24     5    23 1   
@<TRIPOS>SUBSTRUCTURE
     1 3SU         1 TEMP              0 ****  ****    0 ROOT
