@<TRIPOS>MOLECULE
3SU
   23    24     1     0     0
SMALL
bcc


@<TRIPOS>ATOM
      1 OAM         0.1310   -0.0440    0.1380 o         1 3SU     -0.819800
      2 CAL         1.3120   -0.4400   -0.0840 c         1 3SU      0.905800
      3 OAN         1.9820   -1.1540    0.7080 o         1 3SU     -0.819800
      4 CAJ         1.9660   -0.0220   -1.4060 ce        1 3SU     -0.018600
      5 SAP         1.0570    0.9430   -2.4740 sh        1 3SU     -0.426400
      6 CAI         3.2210   -0.4300   -1.6730 cf        1 3SU     -0.144000
      7 CAH         3.9980   -0.1550   -2.8380 cd        1 3SU     -0.045200
      8 CAE         5.3460   -0.6540   -3.0760 ca        1 3SU     -0.071800
      9 CAD         6.2230   -1.4540   -2.3500 ca        1 3SU     -0.071000
     10 CAC         7.4690   -1.7560   -2.8850 ca        1 3SU     -0.153000
     11 CAB         7.8550   -1.2610   -4.1430 ca        1 3SU     -0.010900
     12 BR          9.5530   -1.7060   -4.8200 br        1 3SU     -0.137100
     13 CAG         7.0160   -0.4520   -4.9020 ca        1 3SU     -0.134000
     14 CAF         5.7570   -0.1450   -4.3690 ca        1 3SU     -0.055200
     15 NAA         4.7300    0.6610   -4.8650 na        1 3SU     -0.199400
     16 CAK         3.6590    0.6140   -3.9570 cc        1 3SU     -0.122100
     17 H2          3.7190   -1.0570   -0.9040 ha        1 3SU      0.159000
     18 H4          5.9240   -1.8410   -1.3630 ha        1 3SU      0.152000
     19 H5          8.1620   -2.3900   -2.3120 ha        1 3SU      0.134000
     20 H6          7.3220   -0.0640   -5.8820 ha        1 3SU      0.133000
     21 H7          4.6600    0.9600   -5.8000 hn        1 3SU      0.282700
     22 H8          2.7340    1.1610   -4.1650 h4        1 3SU      0.188000
     23 H9         -0.0660    1.0380   -1.7340 hs        1 3SU      0.274800
@<TRIPOS>BOND
     1    1    2 1   
     2    2    3 1   
     3    2    4 1   
     4    4    5 1   
     5    4    6 2   
     6    5   23 1   
     7    6    7 1   
     8    6   17 1   
     9    7    8 1   
    10    7   16 2   
    11    8    9 ar  
    12    8   14 ar  
    13    9   10 ar  
    14    9   18 1   
    15   10   11 ar  
    16   10   19 1   
    17   11   12 1   
    18   11   13 ar  
    19   13   14 ar  
    20   13   20 1   
    21   14   15 1   
    22   15   16 1   
    23   15   21 1   
    24   16   22 1   
@<TRIPOS>SUBSTRUCTURE
     1 3SU         1 TEMP              0 ****  ****    0 ROOT
