@<TRIPOS>MOLECULE
molecule
   64    64     1     0     0
SMALL
bcc


@<TRIPOS>ATOM
      1 C5'          0.0000     0.0000     0.0000 c3         1 3SV      -0.088100
      2 C3'          1.5300     0.0000     0.0000 c3         1 3SV      -0.078700
      3 C4'          2.0400     0.0000     1.4420 c3         1 3SV      -0.088100
      4 C2'          2.0400    -1.2490    -0.7220 c3         1 3SV      -0.072400
      5 C1'          1.6350    -1.1880    -2.1950 c3         1 3SV      -0.047200
      6 C1           2.1380    -2.4190    -2.9060 ce         1 3SV      -0.072200
      7 C2           1.3400    -3.4610    -3.0540 c2         1 3SV      -0.128400
      8 C6'         -0.0620    -3.3730    -2.5090 c3         1 3SV      -0.051200
      9 C7'         -1.0160    -2.9320    -3.6210 c3         1 3SV      -0.088100
     10 C3           1.7590    -4.7270    -3.7390 c3         1 3SV      -0.031200
     11 C4           2.9400    -4.4840    -4.6780 c3         1 3SV      -0.076400
     12 C5           4.0620    -3.7820    -3.9000 c3         1 3SV      -0.039200
     13 C6           3.5150    -2.4460    -3.4350 ce         1 3SV      -0.100200
     14 C7           4.2530    -1.3420    -3.4950 c2         1 3SV      -0.147200
     15 C8           5.7050    -1.4270    -3.8890 c3         1 3SV      -0.048500
     16 C19          5.9090    -0.7270    -5.2340 c3         1 3SV      -0.083100
     17 C9           6.5630    -0.7450    -2.8230 c3         1 3SV      -0.075400
     18 C10          8.0440    -0.9380    -3.1590 c3         1 3SV      -0.083400
     19 C11          8.9020    -0.2550    -2.0930 c3         1 3SV      -0.081400
     20 C12         10.3810    -0.4490    -2.4290 c3         1 3SV      -0.055700
     21 C20         10.7340    -1.9350    -2.3430 c3         1 3SV      -0.068100
     22 C13         11.2380     0.3380    -1.4340 c3         1 3SV      -0.179400
     23 C14         12.6870     0.2470    -1.8380 c          1 3SV       0.889600
     24 O1          13.6280     0.8660    -1.1060 o          1 3SV      -0.856800
     25 O2          13.0030    -0.3810    -2.8200 o          1 3SV      -0.856800
     26 H1          -0.3610     0.6980     0.7450 hc         1 3SV       0.032200
     27 H2          -0.3610     0.2970    -0.9770 hc         1 3SV       0.032200
     28 H3          -0.3610    -0.9950     0.2320 hc         1 3SV       0.032200
     29 H4           1.8910     0.8850    -0.5110 hc         1 3SV       0.050700
     30 H5           1.6680    -0.8770     1.9570 hc         1 3SV       0.032200
     31 H6           1.6910     0.8920     1.9480 hc         1 3SV       0.032200
     32 H7           3.1230    -0.0140     1.4410 hc         1 3SV       0.032200
     33 H8           3.1200    -1.2940    -0.6460 hc         1 3SV       0.048700
     34 H9           1.6090    -2.1310    -0.2650 hc         1 3SV       0.048700
     35 H10          2.0660    -0.3060    -2.6520 hc         1 3SV       0.049700
     36 H11          0.5550    -1.1430    -2.2720 hc         1 3SV       0.049700
     37 H12         -0.3660    -4.3430    -2.1360 hc         1 3SV       0.046200
     38 H13         -0.0910    -2.6510    -1.7020 hc         1 3SV       0.046200
     39 H14         -1.3600    -3.8020    -4.1680 hc         1 3SV       0.032700
     40 H15         -1.8660    -2.4200    -3.1860 hc         1 3SV       0.032700
     41 H16         -0.4980    -2.2620    -4.2970 hc         1 3SV       0.032700
     42 H17          0.9240    -5.1110    -4.3140 hc         1 3SV       0.043700
     43 H18          2.0470    -5.4560    -2.9910 hc         1 3SV       0.043700
     44 H19          3.3010    -5.4320    -5.0570 hc         1 3SV       0.041200
     45 H20          2.6230    -3.8550    -5.5020 hc         1 3SV       0.041200
     46 H21          4.3470    -4.3810    -3.0430 hc         1 3SV       0.055200
     47 H22          4.9160    -3.6240    -4.5470 hc         1 3SV       0.055200
     48 H23          3.8430    -0.4000    -3.1510 ha         1 3SV       0.127000
     49 H24          5.9950    -2.4670    -3.9760 hc         1 3SV       0.058700
     50 H25          6.7500    -1.1740    -5.7500 hc         1 3SV       0.034033
     51 H26          6.1050     0.3250    -5.0680 hc         1 3SV       0.034033
     52 H27          5.0160    -0.8360    -5.8380 hc         1 3SV       0.034033
     53 H28          6.3340     0.3140    -2.7980 hc         1 3SV       0.038700
     54 H29          6.3520    -1.1830    -1.8550 hc         1 3SV       0.038700
     55 H30          8.2730    -1.9960    -3.1830 hc         1 3SV       0.041700
     56 H31          8.2540    -0.5000    -4.1270 hc         1 3SV       0.041700
     57 H32          8.6730     0.8040    -2.0700 hc         1 3SV       0.029700
     58 H33          8.6910    -0.6910    -1.1250 hc         1 3SV       0.029700
     59 H34         10.5740    -0.0900    -3.4330 hc         1 3SV       0.057700
     60 H35         11.0160    -2.2970    -3.3240 hc         1 3SV       0.025033
     61 H36          9.8750    -2.4900    -1.9860 hc         1 3SV       0.025033
     62 H37         11.5620    -2.0710    -1.6570 hc         1 3SV       0.025033
     63 H38         10.9280     1.3760    -1.4330 hc         1 3SV       0.027700
     64 H39         11.1130    -0.0780    -0.4420 hc         1 3SV       0.027700
@<TRIPOS>BOND
     1    16    15 1   
     2    15    17 1   
     3    15    14 1   
     4    17    18 1   
     5    19    18 1   
     6    19    20 1   
     7    22    20 1   
     8    22    23 1   
     9    12    11 1   
    10    12    13 1   
    11    11    10 1   
    12    20    21 1   
    13    14    13 2   
    14    25    23 1   
    15    23    24 1   
    16    13     6 1   
    17    10     7 1   
    18     6     7 2   
    19     6     5 1   
    20     7     8 1   
    21     5     4 1   
    22     8     9 1   
    23     4     2 1   
    24     2     3 1   
    25     2     1 1   
    26     1    26 1   
    27     1    27 1   
    28     1    28 1   
    29     2    29 1   
    30     3    30 1   
    31     3    31 1   
    32     3    32 1   
    33     4    33 1   
    34     4    34 1   
    35     5    35 1   
    36     5    36 1   
    37     8    37 1   
    38     8    38 1   
    39     9    39 1   
    40     9    40 1   
    41     9    41 1   
    42    10    42 1   
    43    10    43 1   
    44    11    44 1   
    45    11    45 1   
    46    12    46 1   
    47    12    47 1   
    48    14    48 1   
    49    15    49 1   
    50    16    50 1   
    51    16    51 1   
    52    16    52 1   
    53    17    53 1   
    54    17    54 1   
    55    18    55 1   
    56    18    56 1   
    57    19    57 1   
    58    19    58 1   
    59    20    59 1   
    60    21    60 1   
    61    21    61 1   
    62    21    62 1   
    63    22    63 1   
    64    22    64 1   
@<TRIPOS>SUBSTRUCTURE
     1 3SV         1 TEMP              0 ****  ****    0 ROOT
