@<TRIPOS>MOLECULE
3SV
   64    64     1     0     0
SMALL
bcc


@<TRIPOS>ATOM
      1 C5'        -0.1070   -0.0290    0.0830 c3        1 3SV     -0.090100
      2 C3'         1.3620    0.1740   -0.2240 c3        1 3SV     -0.069700
      3 C4'         2.1170    0.5140    1.0440 c3        1 3SV     -0.090100
      4 C2'         1.9650   -1.0620   -0.8790 c3        1 3SV     -0.075400
      5 C1'         1.6190   -1.1490   -2.3540 c3        1 3SV     -0.044200
      6 C1          2.1170   -2.4150   -2.9750 ce        1 3SV     -0.059200
      7 C2          1.3430   -3.5240   -3.0100 c2        1 3SV     -0.121400
      8 C6'        -0.0020   -3.6210   -2.3760 c3        1 3SV     -0.042200
      9 C7'        -1.1160   -3.3220   -3.3520 c3        1 3SV     -0.087100
     10 C3          1.7990   -4.7650   -3.6970 c3        1 3SV     -0.039200
     11 C4          2.7160   -4.4340   -4.8540 c3        1 3SV     -0.072400
     12 C5          3.8700   -3.5720   -4.3980 c3        1 3SV     -0.040200
     13 C6          3.4660   -2.4090   -3.5500 ce        1 3SV     -0.089200
     14 C7          4.3500   -1.4230   -3.2950 c2        1 3SV     -0.147200
     15 C8          5.7470   -1.3660   -3.8140 c3        1 3SV     -0.040500
     16 C19         5.7820   -0.5750   -5.1090 c3        1 3SV     -0.084100
     17 C9          6.6640   -0.7440   -2.7650 c3        1 3SV     -0.074400
     18 C10         8.1260   -1.0250   -3.0420 c3        1 3SV     -0.079400
     19 C11         9.0120   -0.4230   -1.9710 c3        1 3SV     -0.076400
     20 C12        10.4930   -0.6130   -2.2690 c3        1 3SV     -0.046700
     21 C20        10.8850   -2.0750   -2.2220 c3        1 3SV     -0.094100
     22 C13        11.3350    0.1920   -1.2920 c3        1 3SV     -0.192400
     23 C14        12.7870    0.3230   -1.7890 c         1 3SV      0.907600
     24 O1         13.5980   -0.6140   -1.5300 o         1 3SV     -0.852300
     25 O2         13.1020    1.3680   -2.4280 o         1 3SV     -0.852300
     26 H1         -0.2420   -0.8580    0.8200 hc        1 3SV      0.032200
     27 H2         -0.5440    0.9030    0.5150 hc        1 3SV      0.032200
     28 H3         -0.6700   -0.2890   -0.8460 hc        1 3SV      0.032200
     29 H4          1.4610    1.0410   -0.9380 hc        1 3SV      0.046700
     30 H5          3.1850    0.7450    0.8140 hc        1 3SV      0.032200
     31 H6          2.0870   -0.3430    1.7590 hc        1 3SV      0.032200
     32 H7          1.6610    1.4050    1.5400 hc        1 3SV      0.032200
     33 H8          1.6010   -1.9810   -0.3500 hc        1 3SV      0.047700
     34 H9          3.0820   -1.0370   -0.7650 hc        1 3SV      0.047700
     35 H10         2.0490   -0.2630   -2.8960 hc        1 3SV      0.045200
     36 H11         0.5050   -1.0800   -2.4830 hc        1 3SV      0.045200
     37 H12        -0.1360   -4.6610   -1.9700 hc        1 3SV      0.043700
     38 H13        -0.0760   -2.9210   -1.4990 hc        1 3SV      0.043700
     39 H14        -1.0750   -4.0220   -4.2210 hc        1 3SV      0.031700
     40 H15        -2.1070   -3.4350   -2.8500 hc        1 3SV      0.031700
     41 H16        -1.0310   -2.2780   -3.7390 hc        1 3SV      0.031700
     42 H17         2.3370   -5.4180   -2.9570 hc        1 3SV      0.043700
     43 H18         0.9130   -5.3440   -4.0720 hc        1 3SV      0.043700
     44 H19         3.1110   -5.3800   -5.3070 hc        1 3SV      0.038700
     45 H20         2.1340   -3.8980   -5.6490 hc        1 3SV      0.038700
     46 H21         4.5910   -4.2030   -3.8070 hc        1 3SV      0.050200
     47 H22         4.4230   -3.1980   -5.3030 hc        1 3SV      0.050200
     48 H23         4.0790   -0.5690   -2.6530 ha        1 3SV      0.124000
     49 H24         6.1190   -2.4100   -4.0230 hc        1 3SV      0.053700
     50 H25         5.1240   -1.0540   -5.8740 hc        1 3SV      0.034367
     51 H26         5.4280    0.4700   -4.9400 hc        1 3SV      0.034367
     52 H27         6.8250   -0.5360   -5.5070 hc        1 3SV      0.034367
     53 H28         6.3980   -1.1560   -1.7550 hc        1 3SV      0.037200
     54 H29         6.4920    0.3630   -2.7280 hc        1 3SV      0.037200
     55 H30         8.2950   -2.1330   -3.0890 hc        1 3SV      0.038700
     56 H31         8.4130   -0.6030   -4.0410 hc        1 3SV      0.038700
     57 H32         8.7680   -0.8860   -0.9780 hc        1 3SV      0.028700
     58 H33         8.7930    0.6750   -1.8880 hc        1 3SV      0.028700
     59 H34        10.6990   -0.2200   -3.3050 hc        1 3SV      0.051700
     60 H35        10.4760   -2.6260   -3.1020 hc        1 3SV      0.031367
     61 H36        10.4990   -2.5590   -1.2930 hc        1 3SV      0.031367
     62 H37        12.0040   -2.1520   -2.2230 hc        1 3SV      0.031367
     63 H38        11.3340   -0.3060   -0.2910 hc        1 3SV      0.021200
     64 H39        10.9040    1.2180   -1.1780 hc        1 3SV      0.021200
@<TRIPOS>BOND
     1    1    2 1   
     2    1   26 1   
     3    1   27 1   
     4    1   28 1   
     5    2    3 1   
     6    2    4 1   
     7    2   29 1   
     8    3   30 1   
     9    3   31 1   
    10    3   32 1   
    11    4    5 1   
    12    4   33 1   
    13    4   34 1   
    14    5    6 1   
    15    5   35 1   
    16    5   36 1   
    17    6    7 2   
    18    6   13 1   
    19    7    8 1   
    20    7   10 1   
    21    8    9 1   
    22    8   37 1   
    23    8   38 1   
    24    9   39 1   
    25    9   40 1   
    26    9   41 1   
    27   10   11 1   
    28   10   42 1   
    29   10   43 1   
    30   11   12 1   
    31   11   44 1   
    32   11   45 1   
    33   12   13 1   
    34   12   46 1   
    35   12   47 1   
    36   13   14 2   
    37   14   15 1   
    38   14   48 1   
    39   15   16 1   
    40   15   17 1   
    41   15   49 1   
    42   16   50 1   
    43   16   51 1   
    44   16   52 1   
    45   17   18 1   
    46   17   53 1   
    47   17   54 1   
    48   18   19 1   
    49   18   55 1   
    50   18   56 1   
    51   19   20 1   
    52   19   57 1   
    53   19   58 1   
    54   20   21 1   
    55   20   22 1   
    56   20   59 1   
    57   21   60 1   
    58   21   61 1   
    59   21   62 1   
    60   22   23 1   
    61   22   63 1   
    62   22   64 1   
    63   23   24 1   
    64   23   25 1   
@<TRIPOS>SUBSTRUCTURE
     1 3SV         1 TEMP              0 ****  ****    0 ROOT
