@<TRIPOS>MOLECULE
3SW
   59    59     1     0     0
SMALL
bcc


@<TRIPOS>ATOM
      1 C1          0.0720    0.1360    0.3320 c3        1 3SW     -0.037200
      2 C10        -2.7660   -3.3920   -2.5320 c1        1 3SW     -0.118900
      3 C11        -3.0970   -4.2910   -3.4380 ce        1 3SW     -0.028100
      4 C9         -2.4720   -2.5180   -1.6800 c1        1 3SW     -0.015900
      5 O2         -2.3250   -8.2400   -5.8430 o         1 3SW     -0.822800
      6 C14        -2.6600   -7.9310   -4.6640 c         1 3SW      0.894800
      7 C20        -1.6660   -6.0910   -2.4380 c3        1 3SW     -0.050900
      8 C19        -2.7490   -0.2460   -0.8370 c3        1 3SW     -0.033900
      9 C12        -2.6310   -5.6620   -3.4800 ce        1 3SW     -0.156200
     10 C13        -3.0790   -6.4910   -4.4460 cf        1 3SW     -0.117200
     11 C2          1.5670    0.3730    0.3670 c3        1 3SW     -0.074400
     12 C4          1.6070   -1.0210    2.4330 c2        1 3SW     -0.112400
     13 C5          0.4990   -1.6790    2.0110 ce        1 3SW     -0.043200
     14 C6         -0.2870   -1.2110    0.8660 ce        1 3SW     -0.104200
     15 C7         -1.2700   -1.9610    0.3230 cf        1 3SW     -0.077000
     16 C8         -2.1530   -1.6050   -0.7760 cf        1 3SW     -0.153300
     17 C3          2.1050    0.2160    1.7720 c3        1 3SW     -0.031200
     18 O1         -2.6920   -8.7380   -3.6950 o         1 3SW     -0.822800
     19 C4'        -1.4920   -5.5990    1.9700 c3        1 3SW     -0.093100
     20 C3'        -0.1230   -5.4230    2.5950 c3        1 3SW     -0.065700
     21 C5'         0.7320   -6.6440    2.3210 c3        1 3SW     -0.093100
     22 C2'         0.5660   -4.1730    2.0690 c3        1 3SW     -0.075400
     23 C1'         0.0340   -2.9100    2.7220 c3        1 3SW     -0.048200
     24 C6'         2.4130   -1.5050    3.5660 cx        1 3SW     -0.073500
     25 C7'         1.9990   -1.2240    4.9900 cx        1 3SW     -0.132900
     26 C8'         3.2160   -0.5580    4.4210 cx        1 3SW     -0.132900
     27 H1         -0.2830    0.2390   -0.7290 hc        1 3SW      0.046200
     28 H2         -0.4480    0.9230    0.9430 hc        1 3SW      0.046200
     29 H3          1.2710    0.9950   -2.9310 ha        1 3SW      0.000000
     30 H4         -3.7970   -3.9870   -4.2420 ha        1 3SW      0.123000
     31 H5          1.3230    0.8230   -2.2780 ha        1 3SW      0.000000
     32 H7         -1.5540   -7.2070   -2.4490 hc        1 3SW      0.042367
     33 H8         -0.6670   -5.6230   -2.6210 hc        1 3SW      0.042367
     34 H9         -2.0180   -5.7740   -1.4240 hc        1 3SW      0.042367
     35 H10        -2.3080    0.3430   -1.6800 hc        1 3SW      0.032367
     36 H11        -2.5700    0.3090    0.1160 hc        1 3SW      0.032367
     37 H12        -3.8530   -0.3120   -1.0050 hc        1 3SW      0.032367
     38 H13        -3.7950   -6.1270   -5.2020 ha        1 3SW      0.099000
     39 H14         1.7930    1.4040   -0.0120 hc        1 3SW      0.040700
     40 H15         2.0760   -0.3560   -0.3170 hc        1 3SW      0.040700
     41 H16        -1.4510   -2.9860    0.7050 ha        1 3SW      0.133000
     42 H17         1.7970    1.1020    2.3930 hc        1 3SW      0.039200
     43 H18         3.2270    0.2050    1.7460 hc        1 3SW      0.039200
     44 H19        -1.4100   -5.6920    0.8590 hc        1 3SW      0.036033
     45 H20        -1.9820   -6.5220    2.3650 hc        1 3SW      0.036033
     46 H21        -2.1470   -4.7250    2.2020 hc        1 3SW      0.036033
     47 H22        -0.2490   -5.3200    3.7110 hc        1 3SW      0.033700
     48 H23         0.9080   -6.7580    1.2240 hc        1 3SW      0.036033
     49 H24         0.2230   -7.5650    2.6940 hc        1 3SW      0.036033
     50 H25         1.7200   -6.5530    2.8320 hc        1 3SW      0.036033
     51 H26         0.4320   -4.1140    0.9560 hc        1 3SW      0.047200
     52 H27         1.6690   -4.2430    2.2650 hc        1 3SW      0.047200
     53 H28        -1.0890   -2.9310    2.7460 hc        1 3SW      0.046700
     54 H29         0.3710   -2.8810    3.7950 hc        1 3SW      0.046700
     55 H30         2.8590   -2.5020    3.3570 hc        1 3SW      0.083700
     56 H31         2.1220   -2.0210    5.7440 hc        1 3SW      0.066950
     57 H32         1.0930   -0.6200    5.1720 hc        1 3SW      0.066950
     58 H33         3.1810    0.5240    4.2050 hc        1 3SW      0.066950
     59 H34         4.2150   -0.8770    4.7660 hc        1 3SW      0.066950
@<TRIPOS>BOND
     1    1   11 1   
     2    1   14 1   
     3    1   27 1   
     4    1   28 1   
     5    2    3 2   
     6    2    4 2   
     7    3    9 1   
     8    3   30 1   
     9    4   16 2   
    10    5    6 1   
    11    6   10 1   
    12    6   18 1   
    13    7    9 1   
    14    7   32 1   
    15    7   33 1   
    16    7   34 1   
    17    8   16 1   
    18    8   35 1   
    19    8   36 1   
    20    8   37 1   
    21    9   10 2   
    22   10   38 1   
    23   11   17 1   
    24   11   39 1   
    25   11   40 1   
    26   12   13 2   
    27   12   17 1   
    28   12   24 1   
    29   13   14 1   
    30   13   23 1   
    31   14   15 2   
    32   15   16 1   
    33   15   41 1   
    34   17   42 1   
    35   17   43 1   
    36   19   20 1   
    37   19   44 1   
    38   19   45 1   
    39   19   46 1   
    40   20   21 1   
    41   20   22 1   
    42   20   47 1   
    43   21   48 1   
    44   21   49 1   
    45   21   50 1   
    46   22   23 1   
    47   22   51 1   
    48   22   52 1   
    49   23   53 1   
    50   23   54 1   
    51   24   25 1   
    52   24   26 1   
    53   24   55 1   
    54   25   26 1   
    55   25   56 1   
    56   25   57 1   
    57   26   58 1   
    58   26   59 1   
    59   29   31 1   
@<TRIPOS>SUBSTRUCTURE
     1 3SW         1 TEMP              0 ****  ****    0 ROOT
