@<TRIPOS>MOLECULE
molecule
   59    60     1     0     0
SMALL
bcc


@<TRIPOS>ATOM
      1 C1           0.0000     0.0000     0.0000 c3         1 3SW      -0.030200
      2 C10         -2.1340    -3.1150    -1.8830 ce         1 3SW      -0.227000
      3 C11         -2.3530    -3.7890    -3.0500 cf         1 3SW      -0.046000
      4 C9          -2.7190    -1.8550    -1.6790 ce         1 3SW      -0.077000
      5 O2          -1.7510    -7.7150    -5.7160 o          1 3SW      -0.838800
      6 C14         -1.5310    -7.0470    -4.5640 c          1 3SW       0.855800
      7 C20         -0.8990    -5.6560    -2.1830 c3         1 3SW      -0.034900
      8 C19         -3.1280     0.1700    -0.2950 c3         1 3SW      -0.034900
      9 C12         -1.7680    -5.0480    -3.2540 cf         1 3SW      -0.152200
     10 C13         -1.9870    -5.7210    -4.4190 ce         1 3SW      -0.119200
     11 C2           1.5320     0.0000     0.0000 c3         1 3SW      -0.077400
     12 C4           1.4690    -1.1970     2.1720 c2         1 3SW      -0.108400
     13 C5           0.2920    -1.7220     1.8380 ce         1 3SW      -0.054200
     14 C6          -0.4890    -1.1880     0.7870 ce         1 3SW      -0.101200
     15 C7          -1.6880    -1.7510     0.4850 cf         1 3SW      -0.085000
     16 C8          -2.5000    -1.1830    -0.5130 cf         1 3SW      -0.168200
     17 C3           2.0260     0.0000     1.4490 c3         1 3SW      -0.034200
     18 O1          -0.9380    -7.5900    -3.6490 o          1 3SW      -0.838800
     19 C4'         -1.9250    -5.3660     2.6560 c3         1 3SW      -0.090100
     20 C3'         -0.3960    -5.4100     2.6060 c3         1 3SW      -0.077700
     21 C5'          0.0550    -6.6930     1.9050 c3         1 3SW      -0.090100
     22 C2'          0.1240    -4.1970     1.8330 c3         1 3SW      -0.076400
     23 C1'         -0.2200    -2.9180     2.6000 c3         1 3SW      -0.049200
     24 C6'          2.2590    -1.8120     3.2980 cx         1 3SW      -0.077500
     25 C7'          2.4510    -0.9750     4.5650 cx         1 3SW      -0.144400
     26 C8'          3.6280    -1.2060     3.6140 cx         1 3SW      -0.144400
     27 H1          -0.3620     0.9120     0.4600 hc         1 3SW       0.050700
     28 H2          -0.3620    -0.0670    -1.0190 hc         1 3SW       0.050700
     29 H3          -1.5090    -3.5520    -1.1140 ha         1 3SW       0.143000
     30 H4          -2.9780    -3.3520    -3.8190 ha         1 3SW       0.109000
     31 H5          -3.3440    -1.4180    -2.4480 ha         1 3SW       0.113000
     32 H7          -1.4900    -6.3360    -1.5810 hc         1 3SW       0.042367
     33 H8          -0.0830    -6.1990    -2.6450 hc         1 3SW       0.042367
     34 H9          -0.4980    -4.8710    -1.5530 hc         1 3SW       0.042367
     35 H10         -2.7380     0.8710    -1.0230 hc         1 3SW       0.031033
     36 H11         -4.2030     0.0920    -0.4090 hc         1 3SW       0.031033
     37 H12         -2.8950     0.5200     0.7040 hc         1 3SW       0.031033
     38 H13         -2.6130    -5.2810    -5.1870 ha         1 3SW       0.105000
     39 H14          1.8940    -0.8870    -0.5060 hc         1 3SW       0.044700
     40 H15          1.8940     0.8870    -0.5060 hc         1 3SW       0.044700
     41 H16         -2.0420    -2.6050     1.0490 ha         1 3SW       0.135000
     42 H17          1.6920     0.9050     1.9420 hc         1 3SW       0.042200
     43 H18          3.1080    -0.0450     1.4600 hc         1 3SW       0.042200
     44 H19         -2.3130    -5.1690     1.6640 hc         1 3SW       0.035700
     45 H20         -2.3020    -6.3190     3.0080 hc         1 3SW       0.035700
     46 H21         -2.2420    -4.5800     3.3300 hc         1 3SW       0.035700
     47 H22         -0.0010    -5.3910     3.6140 hc         1 3SW       0.034700
     48 H23         -0.6390    -6.9330     1.1090 hc         1 3SW       0.035700
     49 H24          1.0450    -6.5500     1.4900 hc         1 3SW       0.035700
     50 H25          0.0780    -7.5060     2.6210 hc         1 3SW       0.035700
     51 H26          1.1990    -4.2730     1.7210 hc         1 3SW       0.054200
     52 H27         -0.3390    -4.1670     0.8540 hc         1 3SW       0.054200
     53 H28          0.2430    -2.9480     3.5780 hc         1 3SW       0.047200
     54 H29         -1.2950    -2.8420     2.7110 hc         1 3SW       0.047200
     55 H30          2.1850    -2.8790     3.4670 hc         1 3SW       0.088700
     56 H31          2.0180     0.0170     4.5400 hc         1 3SW       0.071200
     57 H32          2.4830    -1.5330     5.4930 hc         1 3SW       0.071200
     58 H33          4.3790    -1.9050     3.9620 hc         1 3SW       0.071200
     59 H34          3.9140    -0.3550     3.0090 hc         1 3SW       0.071200
@<TRIPOS>BOND
     1     8    16 1
     2     4    16 2
     3     4     2 1
     4     3     2 2
     5     3     9 1
     6    16    15 1
     7    10     9 2
     8    10     6 1
     9     1    11 1
    10     1    14 1
    11     9     7 1
    12    18     6 1
    13    11    17 1
    14     6     5 1
    15    15    14 2
    16    14    13 1
    17    17    12 1
    18    13    12 2
    19    13    23 1
    20    12    24 1
    21    23    22 1
    22    22    20 1
    23    24    25 1
    24    24    26 1
    25    25    26 1
    26    20    21 1
    27    20    19 1
    28     1    27 1
    29     1    28 1
    30     2    29 1
    31     3    30 1
    32     4    31 1
    33     7    32 1
    34     7    33 1
    35     7    34 1
    36     8    35 1
    37     8    36 1
    38     8    37 1
    39    10    38 1
    40    11    39 1
    41    11    40 1
    42    15    41 1
    43    17    42 1
    44    17    43 1
    45    19    44 1
    46    19    45 1
    47    19    46 1
    48    20    47 1
    49    21    48 1
    50    21    49 1
    51    21    50 1
    52    22    51 1
    53    22    52 1
    54    23    53 1
    55    23    54 1
    56    24    55 1
    57    25    56 1
    58    25    57 1
    59    26    58 1
    60    26    59 1
@<TRIPOS>SUBSTRUCTURE
     1 3SW         1 TEMP              0 ****  ****    0 ROOT
