@<TRIPOS>MOLECULE
3SX
   64    66     1     0     0
SMALL
bcc


@<TRIPOS>ATOM
      1 C4           0.0000     0.0000     0.0000 c3         1 3SX       0.247800
      2 C14          4.4670    -2.1060     5.7960 c3         1 3SX       0.118800
      3 C6          -0.6300    -1.2640     2.1070 c3         1 3SX       0.308100
      4 C11          2.8050    -2.7550     2.5860 ca         1 3SX      -0.153000
      5 C7           0.6930    -1.6370     2.7270 ca         1 3SX      -0.154300
      6 C8           1.0010    -1.2040     4.0040 ca         1 3SX      -0.055000
      7 C9           2.2120    -1.5430     4.5760 ca         1 3SX      -0.153000
      8 C10          3.1190    -2.3210     3.8680 ca         1 3SX       0.024600
      9 C12          1.5930    -2.4110     2.0200 ca         1 3SX      -0.055000
     10 C3           2.0410    -0.1240    -1.4360 c3         1 3SX       0.001400
     11 C1           2.0400     1.3070     0.6110 c3         1 3SX       0.001400
     12 C2           1.5300     0.0000     0.0000 c3         1 3SX      -0.106700
     13 N5          -0.4890     0.0000     1.3810 n3         1 3SX      -0.538500
     14 N13          4.3430    -2.6670     4.4430 nh         1 3SX      -0.359000
     15 C15          5.8860    -2.3510     6.3190 c3         1 3SX       0.049000
     16 N16          6.1810    -3.7890     6.2130 n          1 3SX      -0.167800
     17 C17          5.9500    -4.4520     4.9210 c3         1 3SX       0.049000
     18 C18          4.5280    -4.1240     4.4520 c3         1 3SX       0.118800
     19 C19          6.6510    -4.4790     7.2710 c          1 3SX       0.591100
     20 O20          6.7950    -5.6800     7.1950 o          1 3SX      -0.648100
     21 C21          6.9950    -3.7570     8.5480 c3         1 3SX      -0.072100
     22 S22         -0.8830     1.4280     2.1190 s6         1 3SX       0.961900
     23 O23         -0.7050     1.1660     3.5050 o          1 3SX      -0.581800
     24 O24         -0.0920     2.4000     1.4510 o          1 3SX      -0.581800
     25 C25         -2.6400     1.6660     1.7380 c3         1 3SX       0.055700
     26 C26         -3.1210     2.9500     2.3640 ca         1 3SX      -0.088300
     27 C27         -3.6340     2.9430     3.6480 ca         1 3SX      -0.085000
     28 C28         -4.0740     4.1200     4.2230 ca         1 3SX      -0.095000
     29 C29         -4.0030     5.3040     3.5140 ca         1 3SX      -0.094000
     30 C30         -3.4900     5.3120     2.2310 ca         1 3SX      -0.095000
     31 C31         -3.0440     4.1350     1.6580 ca         1 3SX      -0.085000
     32 H1          -0.3610    -0.8840    -0.5110 h1         1 3SX       0.014200
     33 H2          -0.3610     0.8840    -0.5110 h1         1 3SX       0.014200
     34 H4           4.2750    -1.0400     5.7630 h1         1 3SX       0.027450
     35 H5          -1.3750    -1.1530     2.8850 h1         1 3SX       0.016700
     36 H6          -0.9380    -2.0430     1.4200 h1         1 3SX       0.016700
     37 H7           3.5100    -3.3610     2.0310 ha         1 3SX       0.118000
     38 H8           0.2930    -0.5970     4.5560 ha         1 3SX       0.123500
     39 H9           2.4530    -1.2030     5.5760 ha         1 3SX       0.118000
     40 H10          1.3480    -2.7490     1.0200 ha         1 3SX       0.123500
     41 H11          3.1240    -0.1500    -1.4330 hc         1 3SX       0.008700
     42 H12          1.7020     0.7260    -2.0150 hc         1 3SX       0.008700
     43 H13          1.6590    -1.0370    -1.8780 hc         1 3SX       0.008700
     44 H14          3.1130     1.3720     0.4820 hc         1 3SX       0.008700
     45 H15          1.5650     2.1460     0.1160 hc         1 3SX       0.008700
     46 H16          1.8010     1.3290     1.6670 hc         1 3SX       0.008700
     47 H17          1.8910    -0.8370     0.5850 hc         1 3SX       0.050700
     48 H18          5.9480    -2.0440     7.3560 h1         1 3SX       0.035450
     49 H19          6.5950    -1.7900     5.7230 h1         1 3SX       0.035450
     50 H20          6.6650    -4.0890     4.1930 h1         1 3SX       0.035450
     51 H21          6.0550    -5.5240     5.0400 h1         1 3SX       0.035450
     52 H22          3.8130    -4.5740     5.1290 h1         1 3SX       0.027450
     53 H23          4.3810    -4.5120     3.4510 h1         1 3SX       0.027450
     54 H24          7.6660    -2.9350     8.3290 hc         1 3SX       0.024367
     55 H25          6.0890    -3.3720     9.0010 hc         1 3SX       0.024367
     56 H26          7.4770    -4.4440     9.2330 hc         1 3SX       0.024367
     57 H27         -3.2120     0.8350     2.1340 h1         1 3SX       0.067200
     58 H28         -2.7730     1.7160     0.6640 h1         1 3SX       0.067200
     59 H29         -3.6890     2.0150     4.2040 ha         1 3SX       0.111500
     60 H30         -4.4760     4.1140     5.2290 ha         1 3SX       0.105000
     61 H31         -4.3510     6.2270     3.9640 ha         1 3SX       0.103000
     62 H32         -3.4310     6.2400     1.6760 ha         1 3SX       0.105000
     63 H33         -2.6420     4.1410     0.6520 ha         1 3SX       0.111500
     64 H3           3.7520    -2.5870     6.4520 h1         1 3SX       0.027450
@<TRIPOS>BOND
     1     1    12 1   
     2     1    13 1   
     3     1    32 1   
     4     1    33 1   
     5     2    14 1   
     6     2    15 1   
     7     2    34 1   
     8     2    64 1   
     9     3     5 1   
    10     3    13 1   
    11     3    35 1   
    12     3    36 1   
    13     4     8 ar  
    14     4     9 ar  
    15     4    37 1   
    16     5     6 ar  
    17     5     9 ar  
    18     6     7 ar  
    19     6    38 1   
    20     7     8 ar  
    21     7    39 1   
    22     8    14 1   
    23     9    40 1   
    24    10    12 1   
    25    10    41 1   
    26    10    42 1   
    27    10    43 1   
    28    11    12 1   
    29    11    44 1   
    30    11    45 1   
    31    11    46 1   
    32    12    47 1   
    33    13    22 1   
    34    14    18 1   
    35    15    16 1   
    36    15    48 1   
    37    15    49 1   
    38    16    17 1   
    39    16    19 1   
    40    17    18 1   
    41    17    50 1   
    42    17    51 1   
    43    18    52 1   
    44    18    53 1   
    45    19    20 2   
    46    19    21 1   
    47    21    54 1   
    48    21    55 1   
    49    21    56 1   
    50    22    23 2   
    51    22    24 2   
    52    22    25 1   
    53    25    26 1   
    54    25    57 1   
    55    25    58 1   
    56    26    27 ar  
    57    26    31 ar  
    58    27    28 ar  
    59    27    59 1   
    60    28    29 ar  
    61    28    60 1   
    62    29    30 ar  
    63    29    61 1   
    64    30    31 ar  
    65    30    62 1   
    66    31    63 1   
@<TRIPOS>SUBSTRUCTURE
     1 3SX         1 TEMP              0 ****  ****    0 ROOT
