@<TRIPOS>MOLECULE
3SY
   21    20     1     0     0
SMALL
bcc


@<TRIPOS>ATOM
      1 O7          0.0240    0.0010    0.0160 oh        1 3SY     -0.606800
      2 C3          1.4450    0.0000   -0.0090 c3        1 3SY      0.136400
      3 C1          1.9390   -0.0000    1.4420 c3        1 3SY     -0.047000
      4 C2          3.4720   -0.0000    1.4210 c3        1 3SY      0.136400
      5 O6          3.9250   -0.0010    2.7680 oh        1 3SY     -0.606800
      6 C4          1.4210    1.2400    2.1770 c3        1 3SY      0.136400
      7 O8          1.9050    2.3870    1.4920 oh        1 3SY     -0.606800
      8 C5          1.4200   -1.2400    2.1770 c3        1 3SY      0.136400
      9 O9          1.9040   -2.3870    1.4910 oh        1 3SY     -0.606800
     10 H1         -0.2600   -0.0010   -0.9050 ho        1 3SY      0.401000
     11 H2          1.8160   -0.9210   -0.5320 h1        1 3SY      0.040700
     12 H3          1.8170    0.9210   -0.5330 h1        1 3SY      0.040700
     13 H4          3.8410   -0.9210    0.8950 h1        1 3SY      0.040700
     14 H5          3.8410    0.9210    0.8960 h1        1 3SY      0.040700
     15 H6          4.8880    0.0030    2.7270 ho        1 3SY      0.401000
     16 H7          1.8030    1.2380    3.2330 h1        1 3SY      0.040700
     17 H8          0.2970    1.2390    2.1710 h1        1 3SY      0.040700
     18 H9          1.5640    3.1500    1.9720 ho        1 3SY      0.401000
     19 H10         0.2970   -1.2390    2.1710 h1        1 3SY      0.040700
     20 H11         1.8030   -1.2390    3.2330 h1        1 3SY      0.040700
     21 H12         1.5670   -3.1500    1.9750 ho        1 3SY      0.401000
@<TRIPOS>BOND
     1    1    2 1   
     2    1   10 1   
     3    2    3 1   
     4    2   11 1   
     5    2   12 1   
     6    3    4 1   
     7    3    6 1   
     8    3    8 1   
     9    4    5 1   
    10    4   13 1   
    11    4   14 1   
    12    5   15 1   
    13    6    7 1   
    14    6   16 1   
    15    6   17 1   
    16    7   18 1   
    17    8    9 1   
    18    8   19 1   
    19    8   20 1   
    20    9   21 1   
@<TRIPOS>SUBSTRUCTURE
     1 3SY         1 TEMP              0 ****  ****    0 ROOT
