@<TRIPOS>MOLECULE
molecule
   21    20     1     0     0
SMALL
bcc


@<TRIPOS>ATOM
      1 O7           0.0000     0.0000     0.0000 oh         1 3SY      -0.617800
      2 C3           1.4290     0.0000     0.0000 c3         1 3SY       0.151400
      3 C1           1.9390     0.0000     1.4420 c3         1 3SY      -0.045000
      4 C2           3.4690    -0.0000     1.4420 c3         1 3SY       0.151400
      5 O6           3.9460    -0.0000     2.7890 oh         1 3SY      -0.617800
      6 C4           1.4300     1.2490     2.1630 c3         1 3SY       0.151400
      7 O8           1.9060     2.4160     1.4890 oh         1 3SY      -0.617800
      8 C5           1.4300    -1.2490     2.1630 c3         1 3SY       0.151400
      9 O9           1.9060    -2.4160     1.4890 oh         1 3SY      -0.617800
     10 H1          -0.3140    -0.0000    -0.8890 ho         1 3SY       0.405000
     11 H2           1.7900    -0.8840    -0.5110 h1         1 3SY       0.036700
     12 H3           1.7900     0.8840    -0.5110 h1         1 3SY       0.036700
     13 H4           3.8300     0.8840     0.9310 h1         1 3SY       0.036700
     14 H5           3.8300    -0.8840     0.9310 h1         1 3SY       0.036700
     15 H6           4.8880    -0.0000     2.7890 ho         1 3SY       0.405000
     16 H7           1.7910     1.2490     3.1840 h1         1 3SY       0.036700
     17 H8           0.3460     1.2490     2.1630 h1         1 3SY       0.036700
     18 H9           1.5920     3.1860     1.9340 ho         1 3SY       0.405000
     19 H10          1.7910    -1.2490     3.1840 h1         1 3SY       0.036700
     20 H11          0.3460    -1.2490     2.1630 h1         1 3SY       0.036700
     21 H12          1.5920    -3.1860     1.9340 ho         1 3SY       0.405000
@<TRIPOS>BOND
     1     5     4 1
     2     8     9 1
     3     8     3 1
     4     4     3 1
     5     3     2 1
     6     3     6 1
     7     2     1 1
     8     6     7 1
     9     1    10 1
    10     2    11 1
    11     2    12 1
    12     4    13 1
    13     4    14 1
    14     5    15 1
    15     6    16 1
    16     6    17 1
    17     7    18 1
    18     8    19 1
    19     8    20 1
    20     9    21 1
@<TRIPOS>SUBSTRUCTURE
     1 3SY         1 TEMP              0 ****  ****    0 ROOT
