@<TRIPOS>MOLECULE
3SZ
   53    56     1     0     0
SMALL
bcc


@<TRIPOS>ATOM
      1 NAA          0.0000     0.0000     0.0000 nv         1 3SZ      -0.557200
      2 OAB          2.0840     0.5530    -4.6280 o          1 3SZ      -0.591800
      3 OAC          4.5360     0.5510    -4.1480 o          1 3SZ      -0.591800
      4 OAD          4.0450    -1.7930    -9.3290 o          1 3SZ      -0.592300
      5 OAE          6.0420    -0.8040    -8.1970 o          1 3SZ      -0.592300
      6 CAF          3.6750     0.0000     0.0000 ca         1 3SZ      -0.126000
      7 CAG          2.3710     0.0000     0.4540 ca         1 3SZ      -0.060000
      8 CAH          3.9360     0.0020    -1.3580 ca         1 3SZ      -0.002000
      9 CAI          4.3590     1.3550    -7.2260 ca         1 3SZ       0.012000
     10 CAJ          3.6470     2.5120    -6.9720 ca         1 3SZ      -0.127000
     11 CAK          1.5870     0.0030    -1.8190 ca         1 3SZ      -0.011000
     12 CAL          2.4440     0.4080    -8.3110 ca         1 3SZ      -0.003000
     13 CAM          2.0950    -2.3700    -6.4110 c3         1 3SZ      -0.108400
     14 CAN          0.4420     3.9830    -7.8800 c3         1 3SZ       0.171400
     15 CAO         -0.3680     2.6820    -7.8840 c3         1 3SZ       0.171400
     16 CAP          2.1080    -2.2800    -4.9420 c3         1 3SZ       0.250800
     17 CAQ          3.3380    -3.1000    -6.9490 c3         1 3SZ       0.229800
     18 CAR          4.5870    -2.2610    -4.4490 c3         1 3SZ       0.220800
     19 CAS          5.3790    -2.1040    -5.7720 c3         1 3SZ       0.217800
     20 OAT          1.6390     3.7660    -7.1240 os         1 3SZ      -0.297900
     21 OAU          0.4340     1.6550    -8.4800 os         1 3SZ      -0.300900
     22 CAV          1.3200     0.0010    -0.4550 ca         1 3SZ       0.000600
     23 CAW          2.8940     0.0040    -2.2650 ca         1 3SZ      -0.153500
     24 CAX          3.7580     0.3040    -7.8940 ca         1 3SZ      -0.176500
     25 CAY          2.3280     2.6220    -7.3850 ca         1 3SZ       0.137100
     26 CAZ          1.7250     1.5660    -8.0590 ca         1 3SZ       0.047100
     27 NBA          3.3270    -1.5750    -4.4790 n3         1 3SZ      -0.518500
     28 NBB          4.4370    -2.1790    -6.9220 n3         1 3SZ      -0.524500
     29 SBC          3.2330     0.0060    -3.9940 sy         1 3SZ       1.048200
     30 SBD          4.6700    -1.1690    -8.2150 sy         1 3SZ       1.055200
     31 HNAA        -0.4740     0.8670     0.1600 hn         1 3SZ       0.275300
     32 HNAB        -0.4750    -0.8670     0.1570 hn         1 3SZ       0.275300
     33 HAF          4.4940    -0.0010     0.7090 ha         1 3SZ       0.109000
     34 HAG          2.1670    -0.0020     1.5180 ha         1 3SZ       0.108000
     35 HAH          4.9600     0.0030    -1.7110 ha         1 3SZ       0.121000
     36 HAJ          4.1200     3.3350    -6.4490 ha         1 3SZ       0.121000
     37 HAK          0.7700     0.0040    -2.5310 ha         1 3SZ       0.125000
     38 HAL          1.9760    -0.4180    -8.8330 ha         1 3SZ       0.131000
     39 HAM          1.2090    -2.9080    -6.7230 hc         1 3SZ       0.038700
     40 HAMA         2.0700    -1.3680    -6.8240 hc         1 3SZ       0.038700
     41 HAN         -0.1410     4.7730    -7.4210 h1         1 3SZ       0.023200
     42 HANA         0.6980     4.2560    -8.8970 h1         1 3SZ       0.023200
     43 HAO         -1.2730     2.8180    -8.4630 h1         1 3SZ       0.025700
     44 HAOA        -0.6160     2.4050    -6.8670 h1         1 3SZ       0.025700
     45 HAP          1.2330    -1.7350    -4.6100 h1         1 3SZ       0.017700
     46 HAPA         2.0940    -3.2800    -4.5240 h1         1 3SZ       0.017700
     47 HAQ          3.5610    -3.9540    -6.3210 h1         1 3SZ       0.031200
     48 HAQA         3.1580    -3.4240    -7.9670 h1         1 3SZ       0.031200
     49 HAR          5.1830    -1.8610    -3.6370 h1         1 3SZ       0.016700
     50 HARA         4.4070    -3.3140    -4.2730 h1         1 3SZ       0.016700
     51 HAS          5.8810    -1.1440    -5.7790 h1         1 3SZ       0.033200
     52 HASA         6.1090    -2.9000    -5.8510 h1         1 3SZ       0.033200
     53 HAI          5.3890     1.2720    -6.9010 ha         1 3SZ       0.132000
@<TRIPOS>BOND
     1     1    22 1   
     2     1    31 1   
     3     1    32 1   
     4     2    29 2   
     5     3    29 2   
     6     4    30 2   
     7     5    30 2   
     8     6     7 ar  
     9     6     8 ar  
    10     6    33 1   
    11     7    22 ar  
    12     7    34 1   
    13     8    23 ar  
    14     8    35 1   
    15     9    10 ar  
    16     9    24 ar  
    17     9    53 1   
    18    10    25 ar  
    19    10    36 1   
    20    11    22 ar  
    21    11    23 ar  
    22    11    37 1   
    23    12    24 ar  
    24    12    26 ar  
    25    12    38 1   
    26    13    16 1   
    27    13    17 1   
    28    13    39 1   
    29    13    40 1   
    30    14    15 1   
    31    14    20 1   
    32    14    41 1   
    33    14    42 1   
    34    15    21 1   
    35    15    43 1   
    36    15    44 1   
    37    16    27 1   
    38    16    45 1   
    39    16    46 1   
    40    17    28 1   
    41    17    47 1   
    42    17    48 1   
    43    18    19 1   
    44    18    27 1   
    45    18    49 1   
    46    18    50 1   
    47    19    28 1   
    48    19    51 1   
    49    19    52 1   
    50    20    25 1   
    51    21    26 1   
    52    23    29 1   
    53    24    30 1   
    54    25    26 ar  
    55    27    29 1   
    56    28    30 1   
@<TRIPOS>SUBSTRUCTURE
     1 3SZ         1 TEMP              0 ****  ****    0 ROOT
