@<TRIPOS>MOLECULE
3T0
   41    43     1     0     0
SMALL
bcc


@<TRIPOS>ATOM
      1 CAA          0.0000     0.0000     0.0000 c3         1 3T0       0.244700
      2 OAD          6.3250     0.1340    -2.0520 o          1 3T0      -0.628500
      3 CAF          4.2550     0.0030     0.0610 ce         1 3T0       0.135800
      4 CAG          8.1260    -3.4220    -4.1800 ca         1 3T0      -0.106500
      5 CAH          9.6030    -4.3460    -2.5370 ca         1 3T0      -0.106500
      6 CAI          1.9220    -0.0010     3.6040 ca         1 3T0      -0.013000
      7 CAJ          8.1210    -2.2180    -3.4980 ca         1 3T0      -0.075000
      8 CAK          9.5930    -3.1440    -1.8530 ca         1 3T0      -0.075000
      9 CAL          1.2940     0.0000     2.3740 ca         1 3T0      -0.216000
     10 CAM          4.0700     0.0020     2.5410 ca         1 3T0      -0.043000
     11 CAN          8.8590    -0.7600    -1.5920 c3         1 3T0       0.096300
     12 OAO          1.4300     0.0000     0.0000 os         1 3T0      -0.302900
     13 SAP          6.4290    -1.1190     1.4820 ss         1 3T0      -0.285200
     14 CAQ          8.8650    -4.4850    -3.6980 ca         1 3T0      -0.078300
     15 CAR          3.3050     0.0010     3.6870 ca         1 3T0      -0.010900
     16 CAS          8.8550    -2.0800    -2.3350 ca         1 3T0      -0.149300
     17 CAT          3.4480     0.0020     1.2860 ca         1 3T0      -0.146800
     18 CAU          2.0450     0.0010     1.2100 ca         1 3T0       0.193100
     19 CAV          7.9660    -1.2640     0.6130 c          1 3T0       0.683100
     20 CAW          6.5690    -0.3180    -0.9490 c          1 3T0       0.641700
     21 CAX          5.5620    -0.3930     0.1140 cd         1 3T0      -0.137600
     22 NAY          7.7650    -0.7800    -0.6180 n          1 3T0      -0.116400
     23 HAA         -0.3610    -0.8810     0.5160 h1         1 3T0       0.001700
     24 HAAA        -0.3610     0.8880     0.5050 h1         1 3T0       0.001700
     25 HAAB        -0.3610    -0.0060    -1.0210 h1         1 3T0       0.001700
     26 HAB          9.8100    -5.9200    -4.9560 hc         1 3T0       0.008367
     27 HABA         8.0560    -5.8080    -5.1570 hc         1 3T0       0.008367
     28 HABB         8.7340    -6.6100    -3.7330 hc         1 3T0       0.008367
     29 HAF          3.8490     0.4260    -0.8490 ha         1 3T0       0.133000
     30 HAG          7.5510    -3.5300    -5.0920 ha         1 3T0       0.108000
     31 HAH         10.1810    -5.1800    -2.1590 ha         1 3T0       0.108000
     32 HAI          1.3290    -0.0010     4.5110 ha         1 3T0       0.115000
     33 HAJ          7.5420    -1.3840    -3.8760 ha         1 3T0       0.120500
     34 HAK         10.1690    -3.0350    -0.9430 ha         1 3T0       0.120500
     35 HAL          0.2120    -0.0010     2.3190 ha         1 3T0       0.128000
     36 HAM          5.1490     0.0790     2.6100 ha         1 3T0       0.164000
     37 HAN          9.8050    -0.6370    -1.0790 h1         1 3T0       0.049200
     38 HANA         8.7230     0.0520    -2.2970 h1         1 3T0       0.049200
     39 BrAE         4.1470     0.0000     5.3810 br         1 3T0      -0.114100
     40 OAC          9.0070    -1.7170     1.0520 o          1 3T0      -0.576500
     41 CAB          8.8660    -5.7980    -4.4380 c3         1 3T0       0.062200
@<TRIPOS>BOND
     1     1    12 1   
     2     1    23 1   
     3     1    24 1   
     4     1    25 1   
     5     2    20 2   
     6     3    17 1   
     7     3    21 2   
     8     3    29 1   
     9     4     7 ar  
    10     4    14 ar  
    11     4    30 1   
    12     5     8 ar  
    13     5    14 ar  
    14     5    31 1   
    15     6     9 ar  
    16     6    15 ar  
    17     6    32 1   
    18     7    16 ar  
    19     7    33 1   
    20     8    16 ar  
    21     8    34 1   
    22     9    18 ar  
    23     9    35 1   
    24    10    15 ar  
    25    10    17 ar  
    26    10    36 1   
    27    11    16 1   
    28    11    22 1   
    29    11    37 1   
    30    11    38 1   
    31    12    18 1   
    32    13    19 1   
    33    13    21 1   
    34    14    41 1   
    35    15    39 1   
    36    17    18 ar  
    37    19    22 1   
    38    19    40 2   
    39    20    21 1   
    40    20    22 1   
    41    26    41 1   
    42    27    41 1   
    43    28    41 1   
@<TRIPOS>SUBSTRUCTURE
     1 3T0         1 TEMP              0 ****  ****    0 ROOT
