@<TRIPOS>MOLECULE
molecule
   41    43     1     0     0
SMALL
bcc


@<TRIPOS>ATOM
      1 CAA          0.0000     0.0000     0.0000 c3         1 3T0       0.125700
      2 OAD          6.3250     0.1340    -2.0520 o          1 3T0      -0.593500
      3 CAF          4.2550     0.0030     0.0610 ce         1 3T0       0.058800
      4 CAG          8.1260    -3.4220    -4.1800 ca         1 3T0      -0.134000
      5 CAH          9.6030    -4.3460    -2.5370 ca         1 3T0      -0.134000
      6 CAI          1.9220    -0.0010     3.6040 ca         1 3T0      -0.043000
      7 CAJ          8.1210    -2.2180    -3.4980 ca         1 3T0      -0.101500
      8 CAK          9.5930    -3.1440    -1.8530 ca         1 3T0      -0.101500
      9 CAL          1.2940     0.0000     2.3740 ca         1 3T0      -0.226000
     10 CAM          4.0700     0.0020     2.5410 ca         1 3T0      -0.050000
     11 CAN          8.8590    -0.7600    -1.5920 c3         1 3T0       0.145300
     12 OAO          1.4300     0.0000     0.0000 os         1 3T0      -0.320900
     13 SAP          6.4290    -1.1190     1.4820 ss         1 3T0      -0.205200
     14 CAQ          8.8650    -4.4850    -3.6980 ca         1 3T0      -0.072300
     15 CAR          3.3050     0.0010     3.6870 ca         1 3T0      -0.058900
     16 CAS          8.8550    -2.0800    -2.3350 ca         1 3T0      -0.134300
     17 CAT          3.4480     0.0020     1.2860 ca         1 3T0      -0.126800
     18 CAU          2.0450     0.0010     1.2100 ca         1 3T0       0.182100
     19 CAV          7.9660    -1.2640     0.6130 c          1 3T0       0.728100
     20 CAW          6.5690    -0.3180    -0.9490 c          1 3T0       0.712700
     21 CAX          5.5620    -0.3930     0.1140 cd         1 3T0      -0.123600
     22 NAY          7.7650    -0.7800    -0.6180 n          1 3T0      -0.483400
     23 HAA         -0.3610     0.0010    -1.0210 h1         1 3T0       0.047700
     24 HAAA        -0.3610    -0.8850     0.5100 h1         1 3T0       0.047700
     25 HAAB        -0.3610     0.8840     0.5110 h1         1 3T0       0.047700
     26 HAB          9.8100    -5.9200    -4.9550 hc         1 3T0       0.044033
     27 HABA         8.7340    -6.6100    -3.7330 hc         1 3T0       0.044033
     28 HABB         8.0560    -5.8080    -5.1570 hc         1 3T0       0.044033
     29 HAF          3.8490     0.4260    -0.8490 ha         1 3T0       0.177000
     30 HAG          7.5510    -3.5300    -5.0920 ha         1 3T0       0.132500
     31 HAH         10.1810    -5.1800    -2.1590 ha         1 3T0       0.132500
     32 HAI          1.3290    -0.0010     4.5110 ha         1 3T0       0.149000
     33 HAJ          7.5420    -1.3840    -3.8760 ha         1 3T0       0.144500
     34 HAK         10.1690    -3.0350    -0.9430 ha         1 3T0       0.144500
     35 HAL          0.2120    -0.0010     2.3190 ha         1 3T0       0.147000
     36 HAM          5.1490     0.0820     2.6100 ha         1 3T0       0.174000
     37 HAN          8.7230     0.0520    -2.2970 h1         1 3T0       0.080700
     38 HANA         9.8050    -0.6370    -1.0790 h1         1 3T0       0.080700
     39 BrAE         4.1470     0.0000     5.3810 br         1 3T0      -0.082100
     40 OAC          9.0070    -1.7170     1.0520 o          1 3T0      -0.551500
     41 CAB          8.8660    -5.7980    -4.4380 c3         1 3T0      -0.049800
@<TRIPOS>BOND
     1     1    12 1
     2     1    23 1
     3     1    24 1
     4     1    25 1
     5    41    26 1
     6    41    27 1
     7    41    28 1
     8     2    20 2
     9    39    15 1
    10     3    21 2
    11     3    29 1
    12     4    14 ar
    13     4    30 1
    14     5    31 1
    15     6     9 ar
    16     6    15 ar
    17     6    32 1
    18     7     4 ar
    19     7    16 ar
    20     7    33 1
    21     8     5 ar
    22     8    34 1
    23     9    18 ar
    24     9    35 1
    25    10    17 ar
    26    10    36 1
    27    11    16 1
    28    11    37 1
    29    11    38 1
    30    13    19 1
    31    14    41 1
    32    14     5 ar
    33    15    10 ar
    34    16     8 ar
    35    17     3 1
    36    18    12 1
    37    18    17 ar
    38    19    40 2
    39    19    22 1
    40    20    22 1
    41    21    13 1
    42    21    20 1
    43    22    11 1
@<TRIPOS>SUBSTRUCTURE
     1 3T0         1 TEMP              0 ****  ****    0 ROOT
