@<TRIPOS>MOLECULE
molecule
   55    59     1     0     0
SMALL
bcc


@<TRIPOS>ATOM
      1 C1           0.0000     0.0000     0.0000 c          1 3T1       0.582300
      2 O1           1.2150     0.0000     0.0000 o          1 3T1      -0.549100
      3 C2          -0.7230     0.0000     1.3140 c3         1 3T1      -0.170400
      4 C3          -2.0870    -0.6740     1.1230 c3         1 3T1      -0.024400
      5 C4          -2.8250     0.0770     0.0170 c3         1 3T1      -0.048200
      6 N5          -2.7750    -0.0120    -2.4040 nu         1 3T1      -0.670400
      7 C6          -3.4790     1.7220    -3.9560 ca         1 3T1      -0.093000
      8 C7          -3.2270     2.4380    -5.1130 ca         1 3T1      -0.134000
      9 C8          -2.0650     2.2170    -5.8310 ca         1 3T1      -0.094000
     10 C9          -1.1350     1.3010    -5.3850 ca         1 3T1      -0.182000
     11 N10         -0.4290    -0.2780    -3.6960 nu         1 3T1      -0.736600
     12 C11          0.2360    -0.0080    -2.4390 c3         1 3T1       0.328000
     13 C12         -2.8760    -0.6000     2.4050 ca         1 3T1      -0.084300
     14 C13         -3.2860    -1.7630     3.0310 ca         1 3T1      -0.122500
     15 C14         -4.0110    -1.6960     4.2070 ca         1 3T1      -0.124000
     16 C15         -4.3240    -0.4660     4.7560 ca         1 3T1      -0.127000
     17 C16         -3.9140     0.6950     4.1300 ca         1 3T1      -0.124000
     18 C17         -3.1850     0.6280     2.9560 ca         1 3T1      -0.122500
     19 C18          0.9150     1.3330    -2.5370 ca         1 3T1      -0.095300
     20 C19          0.1700     2.4660    -2.8060 ca         1 3T1      -0.133000
     21 C20          0.7890     3.7010    -2.8950 ca         1 3T1       0.021400
     22 Cl1         -0.1500     5.1210    -3.2330 cl         1 3T1      -0.091400
     23 C21          2.1600     3.8030    -2.7150 ca         1 3T1       0.087100
     24 O21          2.7710     5.0140    -2.8030 oh         1 3T1      -0.495100
     25 C22          2.9100     2.6620    -2.4450 ca         1 3T1       0.127100
     26 O22          4.2540     2.7570    -2.2670 os         1 3T1      -0.311900
     27 C23          2.2820     1.4300    -2.3500 ca         1 3T1      -0.177000
     28 C24          4.9600     1.5440    -1.9920 c3         1 3T1       0.124700
     29 C25         -2.0240     0.0140    -1.2750 c2         1 3T1       0.208800
     30 C26         -2.5540     0.7900    -3.5200 ca         1 3T1       0.085600
     31 C27         -1.3720     0.5930    -4.2180 ca         1 3T1       0.104600
     32 C28         -0.6820     0.0060    -1.2390 ce         1 3T1      -0.277400
     33 H2          -0.1450    -0.5520     2.0460 hc         1 3T1       0.079200
     34 H2A         -0.8660     1.0200     1.6490 hc         1 3T1       0.079200
     35 H3          -1.9460    -1.7070     0.8320 hc         1 3T1       0.063700
     36 H4          -2.9300     1.1140     0.3100 hc         1 3T1       0.073200
     37 H4A         -3.7840    -0.4000    -0.1460 hc         1 3T1       0.073200
     38 H61         -3.0670    -0.9370    -2.6490 hn         1 3T1       0.426800
     39 H6          -4.4950     1.3500    -3.9110 ha         1 3T1       0.138000
     40 H7          -4.1000     2.5160    -5.7510 ha         1 3T1       0.129000
     41 H8          -2.2440     2.1430    -6.8970 ha         1 3T1       0.128000
     42 H9          -0.7580     0.6710    -6.1830 ha         1 3T1       0.130000
     43 HN10         0.2540    -0.4890    -4.3970 hn         1 3T1       0.389800
     44 H11          0.9910    -0.7700    -2.2820 h1         1 3T1       0.090700
     45 H13         -3.0400    -2.7260     2.6010 ha         1 3T1       0.131000
     46 H14         -4.3320    -2.6060     4.6980 ha         1 3T1       0.131500
     47 H15         -4.8930    -0.4130     5.6760 ha         1 3T1       0.131000
     48 H16         -4.1580     1.6580     4.5610 ha         1 3T1       0.131500
     49 H17         -2.8640     1.5390     2.4650 ha         1 3T1       0.131000
     50 H19         -0.9040     2.3920    -2.9190 ha         1 3T1       0.158000
     51 HO21         2.8200     5.2770    -3.7070 ho         1 3T1       0.419000
     52 H23          2.8640     0.5400    -2.1400 ha         1 3T1       0.150000
     53 H24          4.5990     1.1190    -1.0630 h1         1 3T1       0.043367
     54 H24A         4.7970     0.8410    -2.7990 h1         1 3T1       0.043367
     55 H24B         6.0190     1.7550    -1.9040 h1         1 3T1       0.043367
@<TRIPOS>BOND
     1     1     2 2   
     2     1     3 1   
     3     4     3 1   
     4     4    13 1   
     5     5     4 1   
     6     6    29 1   
     7     7    30 ar  
     8     8     7 ar  
     9     9     8 ar  
    10     9    10 ar  
    11    10    31 ar  
    12    11    12 1   
    13    12    32 1   
    14    13    14 ar  
    15    13    18 ar  
    16    14    15 ar  
    17    15    16 ar  
    18    17    16 ar  
    19    18    17 ar  
    20    19    12 1   
    21    19    20 ar  
    22    21    20 ar  
    23    21    22 1   
    24    23    21 ar  
    25    24    23 1   
    26    25    23 ar  
    27    25    27 ar  
    28    26    25 1   
    29    26    28 1   
    30    27    19 ar  
    31    29     5 1   
    32    29    32 2   
    33    30     6 1   
    34    31    11 1   
    35    31    30 ar  
    36    32     1 1   
    37     3    33 1   
    38     3    34 1   
    39     4    35 1   
    40     5    36 1   
    41     5    37 1   
    42     6    38 1   
    43     7    39 1   
    44     8    40 1   
    45     9    41 1   
    46    10    42 1   
    47    11    43 1   
    48    12    44 1   
    49    14    45 1   
    50    15    46 1   
    51    16    47 1   
    52    17    48 1   
    53    18    49 1   
    54    20    50 1   
    55    24    51 1   
    56    27    52 1   
    57    28    53 1   
    58    28    54 1   
    59    28    55 1   
@<TRIPOS>SUBSTRUCTURE
     1 3T1         1 TEMP              0 ****  ****    0 ROOT
