@<TRIPOS>MOLECULE
molecule
   61    61     1     0     0
SMALL
bcc


@<TRIPOS>ATOM
      1 C13          0.0000     0.0000     0.0000 ce         1 3T2      -0.073200
      2 C11          2.0650    -0.1520    -1.2060 cf         1 3T2       0.023000
      3 C9           4.1330    -0.3020    -2.4120 ce         1 3T2      -0.453000
      4 C8           5.4960    -0.3020    -2.4120 cf         1 3T2      -0.079200
      5 C20          2.1180     0.1640     1.2950 c3         1 3T2      -0.033900
      6 O1          -2.0550     0.0440     1.2210 o          1 3T2      -0.826800
      7 O2          -0.0960    -0.0400     2.2750 o          1 3T2      -0.826800
      8 C1           7.7490     1.0590     0.1740 ce         1 3T2      -0.071200
      9 C2           8.5140     2.1220     0.4120 c2         1 3T2      -0.123400
     10 C3           8.5730     3.2770    -0.5510 c3         1 3T2      -0.033200
     11 C4           7.2350     3.4020    -1.2850 c3         1 3T2      -0.078400
     12 C5           6.9390     2.0800    -2.0020 c3         1 3T2      -0.034200
     13 C6           6.9570     0.9590    -0.9940 ce         1 3T2      -0.081200
     14 C7           6.1990    -0.1490    -1.2030 cf         1 3T2      -0.155000
     15 C10          3.4300    -0.1500    -1.2060 ce         1 3T2      -0.249000
     16 C12          1.3640     0.0000     0.0000 cf         1 3T2      -0.180200
     17 C14         -0.7050     0.0000     1.2210 c          1 3T2       0.846800
     18 C4'          7.4110    -2.9880     1.7140 c3         1 3T2      -0.088600
     19 C3'          8.7580    -2.2650     1.7850 c3         1 3T2      -0.079700
     20 C5'          9.8820    -3.2490     1.4600 c3         1 3T2      -0.088600
     21 C2'          8.7750    -1.1170     0.7740 c3         1 3T2      -0.074400
     22 C7'         10.7970     2.4640     1.3180 c3         1 3T2      -0.084100
     23 C8'          8.8040     3.2730     2.5880 c3         1 3T2      -0.084100
     24 C19          6.2490    -0.4650    -3.7070 c3         1 3T2      -0.023900
     25 H1          -0.5390    -0.1170    -0.9320 ha         1 3T2       0.112000
     26 H2           1.5230    -0.2710    -2.1370 ha         1 3T2       0.138000
     27 H3           3.9880    -1.0920    -1.6840 ha         1 3T2       0.340000
     28 H4           1.6050     0.8830     1.9220 hc         1 3T2       0.044367
     29 H5           3.1200     0.5170     1.0860 hc         1 3T2       0.044367
     30 H6           2.1700    -0.7890     1.8060 hc         1 3T2       0.044367
     31 H8           8.7700     4.1920    -0.0050 hc         1 3T2       0.041700
     32 H9           9.3640     3.1050    -1.2720 hc         1 3T2       0.041700
     33 H10          6.4480     3.6100    -0.5700 hc         1 3T2       0.044200
     34 H11          7.2940     4.2030    -2.0120 hc         1 3T2       0.044200
     35 H12          5.9630     2.1320    -2.4670 hc         1 3T2       0.056700
     36 H13          7.6970     1.9010    -2.7550 hc         1 3T2       0.056700
     37 H14          6.2040    -0.9520    -0.4760 ha         1 3T2       0.129000
     38 H15          3.9720    -0.0320    -0.2750 ha         1 3T2       0.111000
     39 H16          7.1460    -3.1570     0.6770 hc         1 3T2       0.032867
     40 H17          7.4840    -3.9390     2.2280 hc         1 3T2       0.032867
     41 H18          6.6490    -2.3800     2.1870 hc         1 3T2       0.032867
     42 H19          8.9020    -1.8680     2.7830 hc         1 3T2       0.045700
     43 H20         10.8340    -2.7340     1.4950 hc         1 3T2       0.032867
     44 H21          9.8790    -4.0530     2.1860 hc         1 3T2       0.032867
     45 H22          9.7280    -3.6580     0.4690 hc         1 3T2       0.032867
     46 H23          9.7570    -0.6620     0.7610 hc         1 3T2       0.044700
     47 H24          8.5430    -1.5020    -0.2120 hc         1 3T2       0.044700
     48 H25          6.7500    -0.5260     1.1820 hc         1 3T2       0.053700
     49 H26          7.9640     0.3140     2.1560 hc         1 3T2       0.053700
     50 H27          9.2750     1.2160     2.1820 hc         1 3T2       0.063700
     51 H28         10.9100     3.5190     1.1000 hc         1 3T2       0.032200
     52 H29         11.4480     2.1930     2.1410 hc         1 3T2       0.032200
     53 H30         11.0620     1.8840     0.4420 hc         1 3T2       0.032200
     54 H31          9.1110     4.2400     2.2070 hc         1 3T2       0.032200
     55 H32          7.7230     3.2310     2.6380 hc         1 3T2       0.032200
     56 H33          9.2170     3.1290     3.5800 hc         1 3T2       0.032200
     57 H34          7.3100    -0.5360    -3.5010 hc         1 3T2       0.033367
     58 H35          6.0610     0.3910    -4.3450 hc         1 3T2       0.033367
     59 H36          5.9170    -1.3670    -4.2060 hc         1 3T2       0.033367
     60 C1'          7.7320    -0.0700     1.1700 c3         1 3T2      -0.050200
     61 C6'          9.3380     2.1700     1.6730 c3         1 3T2      -0.042500
@<TRIPOS>BOND
     1    24     4 1   
     2     3     4 2   
     3     3    15 1   
     4     4    14 1   
     5     2    15 2   
     6     2    16 1   
     7    12    11 1   
     8    12    13 1   
     9     1    16 2   
    10     1    17 1   
    11    11    10 1   
    12    16     5 1   
    13    14    13 2   
    14     7    17 1   
    15    17     6 1   
    16    13     8 1   
    17    10     9 1   
    18     8     9 2   
    19     8    60 1   
    20     9    61 1   
    21    60    21 1   
    22    23    61 1   
    23    61    22 1   
    24    21    19 1   
    25    19    20 1   
    26    19    18 1   
    27     1    25 1   
    28     2    26 1   
    29     3    27 1   
    30     5    28 1   
    31     5    29 1   
    32     5    30 1   
    33    10    31 1   
    34    10    32 1   
    35    11    33 1   
    36    11    34 1   
    37    12    35 1   
    38    12    36 1   
    39    14    37 1   
    40    15    38 1   
    41    18    39 1   
    42    18    40 1   
    43    18    41 1   
    44    19    42 1   
    45    20    43 1   
    46    20    44 1   
    47    20    45 1   
    48    21    46 1   
    49    21    47 1   
    50    60    48 1   
    51    60    49 1   
    52    61    50 1   
    53    22    51 1   
    54    22    52 1   
    55    22    53 1   
    56    23    54 1   
    57    23    55 1   
    58    23    56 1   
    59    24    57 1   
    60    24    58 1   
    61    24    59 1   
@<TRIPOS>SUBSTRUCTURE
     1 3T2         1 TEMP              0 ****  ****    0 ROOT
