@<TRIPOS>MOLECULE
3T2
   61    61     1     0     0
SMALL
bcc


@<TRIPOS>ATOM
      1 C13        -0.2750   -0.8470   -0.1050 ce        1 3T2     -0.140200
      2 C11         2.0670   -0.2610    0.2150 cf        1 3T2     -0.027000
      3 C9          3.9120   -0.4050   -1.4650 ce        1 3T2     -0.057000
      4 C8          5.2370   -0.3690   -1.7270 cf        1 3T2     -0.170200
      5 C20         1.4010   -2.1670   -1.3180 c3        1 3T2     -0.043900
      6 O1         -0.2850    0.4620    1.9090 o         1 3T2     -0.830300
      7 O2         -1.8950    0.8000    0.4010 o         1 3T2     -0.830300
      8 C1          7.9970    1.4050    0.2870 ce        1 3T2     -0.051200
      9 C2          8.8490    2.4530    0.1810 c2        1 3T2     -0.124400
     10 C3          8.7600    3.4270   -0.9430 c3        1 3T2     -0.034200
     11 C4          7.3870    3.4330   -1.5780 c3        1 3T2     -0.074400
     12 C5          6.9650    2.0260   -1.9330 c3        1 3T2     -0.037200
     13 C6          7.0190    1.0990   -0.7630 ce        1 3T2     -0.095200
     14 C7          6.2150    0.0170   -0.7160 cf        1 3T2     -0.085000
     15 C10         3.3160   -0.0030   -0.2180 ce        1 3T2     -0.237000
     16 C12         1.0240   -1.0630   -0.3960 cf        1 3T2     -0.166200
     17 C14        -0.8460    0.2210    0.8010 c         1 3T2      0.892800
     18 C4'         7.3120   -2.4650    2.3400 c3        1 3T2     -0.090600
     19 C3'         8.6320   -1.7280    2.4320 c3        1 3T2     -0.069700
     20 C5'         9.7810   -2.7160    2.4450 c3        1 3T2     -0.090600
     21 C2'         8.7960   -0.7460    1.2800 c3        1 3T2     -0.073400
     22 C7'        11.2170    3.1890    0.4930 c3        1 3T2     -0.086100
     23 C8'         9.4930    3.7420    2.2040 c3        1 3T2     -0.086100
     24 C19         5.7740   -0.8020   -3.0410 c3        1 3T2     -0.037900
     25 H1         -1.0500   -1.4750   -0.5770 ha        1 3T2      0.101000
     26 H2          1.7430    0.1940    1.1810 ha        1 3T2      0.181000
     27 H3          3.2180   -0.7330   -2.2600 ha        1 3T2      0.121000
     28 H4          0.6840   -3.0210   -1.2250 hc        1 3T2      0.021700
     29 H5          1.3780   -1.8190   -2.3820 hc        1 3T2      0.021700
     30 H6          2.4270   -2.5470   -1.0910 hc        1 3T2      0.021700
     31 H8          8.9960    4.4590   -0.5660 hc        1 3T2      0.039200
     32 H9          9.5360    3.1680   -1.7140 hc        1 3T2      0.039200
     33 H10         6.6440    3.8820   -0.8680 hc        1 3T2      0.041200
     34 H11         7.3990    4.0690   -2.5010 hc        1 3T2      0.041200
     35 H12         5.9230    2.0430   -2.3540 hc        1 3T2      0.048700
     36 H13         7.6450    1.6290   -2.7360 hc        1 3T2      0.048700
     37 H14         6.2460   -0.6780    0.1440 ha        1 3T2      0.126000
     38 H15         3.9700    0.6070    0.4330 ha        1 3T2      0.114000
     39 H16         7.1960   -3.1630    3.2040 hc        1 3T2      0.033033
     40 H17         6.4570   -1.7460    2.3480 hc        1 3T2      0.033033
     41 H18         7.2590   -3.0590    1.3950 hc        1 3T2      0.033033
     42 H19         8.6500   -1.1500    3.3990 hc        1 3T2      0.042700
     43 H20         9.8230   -3.2780    1.4810 hc        1 3T2      0.033033
     44 H21        10.7520   -2.1850    2.5880 hc        1 3T2      0.033033
     45 H22         9.6510   -3.4500    3.2760 hc        1 3T2      0.033033
     46 H23         9.8800   -0.4790    1.1690 hc        1 3T2      0.043200
     47 H24         8.4760   -1.2360    0.3220 hc        1 3T2      0.043200
     48 H25         8.4050    1.0750    2.3840 hc        1 3T2      0.050700
     49 H26         6.9340    0.2680    1.7670 hc        1 3T2      0.050700
     50 H27        10.1950    1.7640    1.7100 hc        1 3T2      0.050700
     51 H28        12.0490    3.2250    1.2380 hc        1 3T2      0.031700
     52 H29        11.5000    2.4860   -0.3260 hc        1 3T2      0.031700
     53 H30        11.0950    4.2090    0.0580 hc        1 3T2      0.031700
     54 H31         8.5910    3.3710    2.7470 hc        1 3T2      0.031700
     55 H32        10.3090    3.9220    2.9450 hc        1 3T2      0.031700
     56 H33         9.2370    4.7120    1.7150 hc        1 3T2      0.031700
     57 H34         6.3270    0.0340   -3.5370 hc        1 3T2      0.028367
     58 H35         6.4850   -1.6550   -2.9040 hc        1 3T2      0.028367
     59 H36         4.9550   -1.1350   -3.7250 hc        1 3T2      0.028367
     60 C1'         7.9950    0.5230    1.4960 c3        1 3T2     -0.049200
     61 C6'         9.9410    2.7240    1.1720 c3        1 3T2     -0.028500
@<TRIPOS>BOND
     1    1   16 2   
     2    1   17 1   
     3    1   25 1   
     4    2   15 2   
     5    2   16 1   
     6    2   26 1   
     7    3    4 2   
     8    3   15 1   
     9    3   27 1   
    10    4   14 1   
    11    4   24 1   
    12    5   16 1   
    13    5   28 1   
    14    5   29 1   
    15    5   30 1   
    16    6   17 1   
    17    7   17 1   
    18    8    9 2   
    19    8   13 1   
    20    8   60 1   
    21    9   10 1   
    22    9   61 1   
    23   10   11 1   
    24   10   31 1   
    25   10   32 1   
    26   11   12 1   
    27   11   33 1   
    28   11   34 1   
    29   12   13 1   
    30   12   35 1   
    31   12   36 1   
    32   13   14 2   
    33   14   37 1   
    34   15   38 1   
    35   18   19 1   
    36   18   39 1   
    37   18   40 1   
    38   18   41 1   
    39   19   20 1   
    40   19   21 1   
    41   19   42 1   
    42   20   43 1   
    43   20   44 1   
    44   20   45 1   
    45   21   46 1   
    46   21   47 1   
    47   21   60 1   
    48   22   51 1   
    49   22   52 1   
    50   22   53 1   
    51   22   61 1   
    52   23   54 1   
    53   23   55 1   
    54   23   56 1   
    55   23   61 1   
    56   24   57 1   
    57   24   58 1   
    58   24   59 1   
    59   48   60 1   
    60   49   60 1   
    61   50   61 1   
@<TRIPOS>SUBSTRUCTURE
     1 3T2         1 TEMP              0 ****  ****    0 ROOT
