@<TRIPOS>MOLECULE
3T4
   38    39     1     0     0
SMALL
bcc


@<TRIPOS>ATOM
      1 C1           0.0000     0.0000     0.0000 ca         1 3T4      -0.437200
      2 Cl1          7.3880     7.2680     1.1650 cl         1 3T4      -0.056400
      3 N2          -0.7420     0.0000    -1.2810 no         1 3T4       1.044200
      4 O3          -0.1340    -0.0010    -2.3360 o          1 3T4      -0.441500
      5 O4          -1.9600     0.0010    -1.2790 o          1 3T4      -0.441500
      6 C5           1.3790     0.0000     0.0000 ca         1 3T4       0.007000
      7 C6           2.0740     0.0000     1.1970 ca         1 3T4      -0.111300
      8 C7           3.5810    -0.0010     1.1890 c3         1 3T4       0.114300
      9 N8           4.0700     1.3800     1.1850 ns         1 3T4      -0.244900
     10 C9           5.3960     1.6240     1.1790 c          1 3T4       0.591700
     11 C10          5.8880     3.0150     1.1740 ca         1 3T4      -0.223600
     12 C11          4.9850     4.0800     1.1780 ca         1 3T4      -0.041000
     13 C12          5.4510     5.3770     1.1750 ca         1 3T4      -0.192000
     14 C13          6.8140     5.6300     1.1680 ca         1 3T4       0.042400
     15 C15          7.7190     4.5850     1.1640 ca         1 3T4      -0.236000
     16 C16          7.2660     3.2740     1.1730 ca         1 3T4       0.245100
     17 O17          8.1530     2.2480     1.1740 os         1 3T4      -0.203900
     18 C18          9.5410     2.5890     1.1740 c3         1 3T4       0.067400
     19 C19         10.3680     1.3280     1.1760 c          1 3T4       0.973600
     20 O20          9.8240     0.2500     1.1790 o          1 3T4      -0.873300
     21 O21         11.7080     1.4050     1.1740 o          1 3T4      -0.873300
     22 O22          6.1860     0.7000     1.1750 o          1 3T4      -0.567100
     23 C23          1.3920     0.0020     2.4010 ca         1 3T4      -0.029000
     24 C24          0.0120     0.0040     2.4150 ca         1 3T4      -0.099000
     25 C25         -0.6950     0.0080     1.2120 ca         1 3T4       0.126000
     26 C26         -2.1270     0.0150     1.2190 cg         1 3T4       0.203800
     27 N27         -3.2630     0.0270     1.2440 n1         1 3T4      -0.325800
     28 H5           1.9210    -0.0360    -0.9380 ha         1 3T4       0.147000
     29 H7           3.9370    -0.5420     0.3210 h1         1 3T4       0.035700
     30 H7A          3.9460    -0.4820     2.0890 h1         1 3T4       0.035700
     31 HN8          3.4230     2.1400     1.2550 hn         1 3T4       0.175500
     32 H11          3.9190     3.8860     1.1710 ha         1 3T4       0.090000
     33 H12          4.7520     6.2040     1.1870 ha         1 3T4       0.108000
     34 H15          8.7830     4.7890     1.1500 ha         1 3T4       0.151000
     35 H18          9.7620     3.1990     0.3060 h1         1 3T4      -0.002300
     36 H18A         9.7770     3.1420     2.0740 h1         1 3T4      -0.002300
     37 H23          1.9410     0.0020     3.3350 ha         1 3T4       0.122000
     38 H24         -0.5200     0.0050     3.3580 ha         1 3T4       0.123000
@<TRIPOS>BOND
     1     1     3 1   
     2     1     6 ar  
     3     1    25 ar  
     4     2    14 1   
     5     3     4 1   
     6     3     5 1   
     7     6     7 ar  
     8     6    28 1   
     9     7     8 1   
    10     7    23 ar  
    11     8     9 1   
    12     8    29 1   
    13     8    30 1   
    14     9    10 1   
    15     9    31 1   
    16    10    11 1   
    17    10    22 2   
    18    11    12 ar  
    19    11    16 ar  
    20    12    13 ar  
    21    12    32 1   
    22    13    14 ar  
    23    13    33 1   
    24    14    15 ar  
    25    15    16 ar  
    26    15    34 1   
    27    16    17 1   
    28    17    18 1   
    29    18    19 1   
    30    18    35 1   
    31    18    36 1   
    32    19    20 1   
    33    19    21 1   
    34    23    24 ar  
    35    23    37 1   
    36    24    25 ar  
    37    24    38 1   
    38    25    26 1   
    39    26    27 3   
@<TRIPOS>SUBSTRUCTURE
     1 3T4         1 TEMP              0 ****  ****    0 ROOT
