@<TRIPOS>MOLECULE
molecule
   60    63     1     0     0
SMALL
bcc


@<TRIPOS>ATOM
      1 F            1.4000     0.0000     0.0000 f          1 3T5      -0.236300
      2 P           -3.2200    -4.3350     6.3900 p5         1 3T5       1.167900
      3 C1          -2.2370    -2.2080     1.1700 c3         1 3T5      -0.098100
      4 O1          -1.9220     0.1540     1.4380 oh         1 3T5      -0.604800
      5 C2          -0.7380    -2.4450     1.3690 c3         1 3T5      -0.034000
      6 C3          -0.1400    -1.3040     2.1690 c3         1 3T5      -0.080400
      7 O3           0.7090    -3.8980     2.6650 oh         1 3T5      -0.607800
      8 C4          -0.5020     0.0000     1.4400 c3         1 3T5       0.127100
      9 C5           0.0000     0.0000     0.0000 c3         1 3T5       0.210300
     10 O5          -2.8740    -4.4880     4.8260 os         1 3T5      -0.550200
     11 O6          -3.1660    -2.9060     6.7690 o          1 3T5      -0.902167
     12 C7          -0.5030     1.2600    -0.7120 c3         1 3T5      -0.031600
     13 O7          -4.6970    -4.9100     6.6730 o          1 3T5      -0.902167
     14 C8          -2.0330     1.2340    -0.6770 c3         1 3T5      -0.069100
     15 O8          -2.1470    -5.1620     7.2600 o          1 3T5      -0.902167
     16 C9          -0.0510     2.4860     0.0040 c2         1 3T5      -0.080200
     17 C10          0.5960     3.4860    -0.5740 ce         1 3T5      -0.255200
     18 C11          0.9160     3.4190    -2.0100 c          1 3T5       0.575500
     19 C12          0.5470     2.2060    -2.7560 ce         1 3T5      -0.267200
     20 C13         -0.0960     1.2140    -2.1550 c2         1 3T5      -0.026400
     21 C14         -0.4270    -0.0340    -2.9510 c3         1 3T5      -0.053200
     22 C15          0.0840    -1.2490    -2.1700 c3         1 3T5      -0.076400
     23 C16         -0.5050    -1.2250    -0.7790 c3         1 3T5      -0.088700
     24 C17         -0.0210    -2.4640    -0.0080 c3         1 3T5      -0.076700
     25 C18         -0.4780    -3.8110    -0.5780 c3         1 3T5      -0.069400
     26 C19         -0.3910    -4.7560     0.6520 c3         1 3T5      -0.094700
     27 C20          0.9510    -5.4920     0.6540 c3         1 3T5      -0.082100
     28 C21         -0.5030    -3.8510     1.9100 c3         1 3T5       0.056800
     29 C22         -1.6660    -4.2880     2.7650 c          1 3T5       0.520100
     30 C23         -1.6770    -3.9760     4.2390 c3         1 3T5       0.139400
     31 H1          -2.6810    -1.8990     2.1080 hc         1 3T5       0.055033
     32 H1A         -2.3850    -1.4340     0.4280 hc         1 3T5       0.055033
     33 H1B         -2.7060    -3.1250     0.8340 hc         1 3T5       0.055033
     34 HO1         -2.1930     0.5840     2.2320 ho         1 3T5       0.411000
     35 H3           0.9370    -1.4120     2.2160 hc         1 3T5       0.076700
     36 H3A         -0.5590    -1.2950     3.1680 hc         1 3T5       0.076700
     37 HO3          0.7070    -4.6640     3.2150 ho         1 3T5       0.419000
     38 H4          -0.0530     0.8330     1.9680 h1         1 3T5       0.034700
     39 H8          -2.4230     1.7880    -1.5210 hc         1 3T5       0.051367
     40 H8A         -2.3780     0.2080    -0.7280 hc         1 3T5       0.051367
     41 H8B         -2.3810     1.6860     0.2440 hc         1 3T5       0.051367
     42 H9          -0.2710     2.5660     1.0610 ha         1 3T5       0.135000
     43 H10          0.9530     4.3160     0.0230 ha         1 3T5       0.145000
     44 H12          0.8010     2.1230    -3.8060 ha         1 3T5       0.142000
     45 H14          0.0620     0.0100    -3.9170 hc         1 3T5       0.050200
     46 H14A        -1.5000    -0.1090    -3.0810 hc         1 3T5       0.050200
     47 H15         -0.2200    -2.1570    -2.6760 hc         1 3T5       0.053700
     48 H15A         1.1650    -1.2080    -2.1060 hc         1 3T5       0.053700
     49 H16         -1.5870    -1.2160    -0.8300 hc         1 3T5       0.095700
     50 H17          1.0540    -2.4430     0.1210 hc         1 3T5       0.071700
     51 H18          0.1940    -4.1410    -1.3610 hc         1 3T5       0.036700
     52 H18A        -1.4970    -3.7470    -0.9380 hc         1 3T5       0.036700
     53 H19         -1.2100    -5.4650     0.6320 hc         1 3T5       0.084700
     54 H20          0.9560    -6.2310     1.4460 hc         1 3T5       0.030700
     55 H20A         1.0940    -5.9840    -0.3000 hc         1 3T5       0.030700
     56 H20B         1.7520    -4.7820     0.8180 hc         1 3T5       0.030700
     57 H23         -0.8180    -4.4310     4.7160 h1         1 3T5       0.036200
     58 H23A        -1.6400    -2.9020     4.3750 h1         1 3T5       0.036200
     59 O2           1.4720     4.3470    -2.5670 o          1 3T5      -0.558100
     60 O4          -2.5890    -4.8880     2.2670 o          1 3T5      -0.507100
@<TRIPOS>BOND
     1     1     9 1
     2    11     2 1
     3     2    13 1
     4     2    15 1
     5     2    10 1
     6     5     3 1
     7     3    31 1
     8     3    32 1
     9     3    33 1
    10     8     4 1
    11     4    34 1
    12    28     5 1
    13    24     5 1
    14     5     6 1
    15    18    59 2
    16     6     8 1
    17     6    35 1
    18     6    36 1
    19     7    28 1
    20     7    37 1
    21     9     8 1
    22     8    38 1
    23    29    60 2
    24    23     9 1
    25     9    12 1
    26    30    10 1
    27    20    12 1
    28    12    16 1
    29    12    14 1
    30    14    39 1
    31    14    40 1
    32    14    41 1
    33    16    17 2
    34    16    42 1
    35    18    17 1
    36    17    43 1
    37    19    18 1
    38    20    19 2
    39    19    44 1
    40    21    20 1
    41    22    21 1
    42    21    45 1
    43    21    46 1
    44    22    23 1
    45    22    47 1
    46    22    48 1
    47    24    23 1
    48    23    49 1
    49    25    24 1
    50    24    50 1
    51    26    25 1
    52    25    51 1
    53    25    52 1
    54    27    26 1
    55    26    28 1
    56    26    53 1
    57    27    54 1
    58    27    55 1
    59    27    56 1
    60    29    28 1
    61    30    29 1
    62    30    57 1
    63    30    58 1
@<TRIPOS>SUBSTRUCTURE
     1 3T5         1 TEMP              0 ****  ****    0 ROOT
