@<TRIPOS>MOLECULE
3T5
   60    63     1     0     0
SMALL
bcc


@<TRIPOS>ATOM
      1 F           1.3210   -0.0130    0.1480 f         1 3T5     -0.257300
      2 P          -2.3380   -2.4380    5.1410 p5        1 3T5      1.341900
      3 C1         -2.3740   -2.4680    1.3470 c3        1 3T5     -0.137100
      4 O1         -1.6700    0.3530    2.0200 oh        1 3T5     -0.681800
      5 C2         -0.8760   -2.6960    1.4330 c3        1 3T5     -0.034000
      6 C3         -0.2470   -1.6260    2.3140 c3        1 3T5     -0.144400
      7 O3          0.4110   -4.2690    2.8450 oh        1 3T5     -0.653800
      8 C4         -0.4170   -0.2200    1.7440 c3        1 3T5      0.182100
      9 C5         -0.0780   -0.1080    0.2010 c3        1 3T5      0.187300
     10 O5         -3.0360   -3.6890    4.1760 os        1 3T5     -0.557200
     11 O6         -2.6410   -1.2460    4.2640 o         1 3T5     -0.921167
     12 C7         -0.6670    1.1740   -0.5090 c3        1 3T5     -0.020600
     13 O7         -3.0180   -2.5640    6.4620 o         1 3T5     -0.921167
     14 C8         -2.1930    1.1500   -0.6450 c3        1 3T5     -0.085100
     15 O8         -0.8740   -2.8170    5.0590 o         1 3T5     -0.921167
     16 C9         -0.3280    2.3850    0.3050 c2        1 3T5     -0.045200
     17 C10         0.2990    3.4640   -0.1820 ce        1 3T5     -0.293200
     18 C11         0.7470    3.5410   -1.5760 c         1 3T5      0.579500
     19 C12         0.5400    2.3290   -2.3780 ce        1 3T5     -0.284200
     20 C13        -0.0860    1.2370   -1.9020 c2        1 3T5     -0.010400
     21 C14        -0.2660    0.0240   -2.7520 c3        1 3T5     -0.050200
     22 C15         0.1070   -1.2570   -2.0310 c3        1 3T5     -0.075400
     23 C16        -0.5250   -1.3350   -0.6510 c3        1 3T5     -0.067700
     24 C17        -0.1280   -2.5940    0.0840 c3        1 3T5     -0.078700
     25 C18        -0.3210   -3.9470   -0.5710 c3        1 3T5     -0.064400
     26 C19        -0.1420   -4.9310    0.5930 c3        1 3T5     -0.067700
     27 C20         1.2860   -5.4090    0.6920 c3        1 3T5     -0.067100
     28 C21        -0.6190   -4.1770    1.8850 c3        1 3T5      0.097800
     29 C22        -1.8970   -4.8600    2.4180 c         1 3T5      0.542100
     30 C23        -2.2640   -4.7850    3.9040 c3        1 3T5      0.138400
     31 H1         -2.7980   -2.4850    2.4000 hc        1 3T5      0.062700
     32 H1A        -2.6170   -1.4630    0.9240 hc        1 3T5      0.062700
     33 H1B        -2.8630   -3.2480    0.7170 hc        1 3T5      0.062700
     34 HO1        -2.1130   -0.1730    2.7320 ho        1 3T5      0.521000
     35 H3          0.8460   -1.8350    2.4380 hc        1 3T5      0.114200
     36 H3A        -0.7230   -1.6610    3.3520 hc        1 3T5      0.114200
     37 HO3         0.1430   -3.7300    3.6260 ho        1 3T5      0.496000
     38 H4          0.3560    0.4430    2.2470 h1        1 3T5      0.019700
     39 H8         -2.5190    0.3850   -1.3890 hc        1 3T5      0.053700
     40 H8A        -2.6780    0.9180    0.3350 hc        1 3T5      0.053700
     41 H8B        -2.5460    2.1500   -0.9970 hc        1 3T5      0.053700
     42 H9         -0.6700    2.3270    1.3570 ha        1 3T5      0.178000
     43 H10         0.5150    4.3420    0.4450 ha        1 3T5      0.136000
     44 H12         0.9470    2.3600   -3.4010 ha        1 3T5      0.128000
     45 H14        -1.3430   -0.0260   -3.0730 hc        1 3T5      0.040200
     46 H14A        0.3510    0.1130   -3.6870 hc        1 3T5      0.040200
     47 H15        -0.2290   -2.1360   -2.6400 hc        1 3T5      0.044700
     48 H15A        1.2230   -1.3190   -1.9310 hc        1 3T5      0.044700
     49 H16        -1.6420   -1.3090   -0.7640 hc        1 3T5      0.075700
     50 H17         0.9780   -2.5060    0.3100 hc        1 3T5      0.052700
     51 H18        -1.3470   -4.0400   -1.0050 hc        1 3T5      0.024700
     52 H18A        0.4230   -4.1300   -1.3840 hc        1 3T5      0.024700
     53 H19        -0.8020   -5.8240    0.4210 hc        1 3T5      0.061700
     54 H20         1.9780   -4.5460    0.8500 hc        1 3T5      0.023367
     55 H20A        1.3970   -6.1010    1.5620 hc        1 3T5      0.023367
     56 H20B        1.5830   -5.9450   -0.2420 hc        1 3T5      0.023367
     57 H23        -2.8650   -5.7220    4.1160 h1        1 3T5      0.024700
     58 H23A       -1.3230   -4.8040    4.5230 h1        1 3T5      0.024700
     59 O2          1.2730    4.5620   -2.0550 o         1 3T5     -0.599100
     60 O4         -2.5910   -5.5430    1.6460 o         1 3T5     -0.616100
@<TRIPOS>BOND
     1    1    9 1   
     2    2   10 1   
     3    2   11 1   
     4    2   13 1   
     5    2   15 1   
     6    3    5 1   
     7    3   31 1   
     8    3   32 1   
     9    3   33 1   
    10    4    8 1   
    11    4   34 1   
    12    5    6 1   
    13    5   24 1   
    14    5   28 1   
    15    6    8 1   
    16    6   35 1   
    17    6   36 1   
    18    7   28 1   
    19    7   37 1   
    20    8    9 1   
    21    8   38 1   
    22    9   12 1   
    23    9   23 1   
    24   10   30 1   
    25   12   14 1   
    26   12   16 1   
    27   12   20 1   
    28   14   39 1   
    29   14   40 1   
    30   14   41 1   
    31   16   17 2   
    32   16   42 1   
    33   17   18 1   
    34   17   43 1   
    35   18   19 1   
    36   18   59 2   
    37   19   20 2   
    38   19   44 1   
    39   20   21 1   
    40   21   22 1   
    41   21   45 1   
    42   21   46 1   
    43   22   23 1   
    44   22   47 1   
    45   22   48 1   
    46   23   24 1   
    47   23   49 1   
    48   24   25 1   
    49   24   50 1   
    50   25   26 1   
    51   25   51 1   
    52   25   52 1   
    53   26   27 1   
    54   26   28 1   
    55   26   53 1   
    56   27   54 1   
    57   27   55 1   
    58   27   56 1   
    59   28   29 1   
    60   29   30 1   
    61   29   60 2   
    62   30   57 1   
    63   30   58 1   
@<TRIPOS>SUBSTRUCTURE
     1 3T5         1 TEMP              0 ****  ****    0 ROOT
