@<TRIPOS>MOLECULE
molecule
   64    68     1     0     0
SMALL
bcc


@<TRIPOS>ATOM
      1 O01          0.0000     0.0000     0.0000 o          1 3T7      -0.515300
      2 S02          1.4220     0.0000     0.0000 sy         1 3T7       1.227800
      3 C03          1.9200     0.0000     1.6900 cc         1 3T7       0.036300
      4 N04          2.0230    -1.0390     2.4530 nd         1 3T7      -0.199000
      5 N05          2.3950    -0.8630     3.6450 nd         1 3T7      -0.380000
      6 C06          2.6500     0.3580     4.0240 cc         1 3T7       0.763300
      7 N07          3.0700     0.7520     5.2850 nh         1 3T7      -0.727300
      8 C08          3.3190     2.1680     5.5650 c3         1 3T7       0.212500
      9 C09          4.7590     2.4940     5.2610 cd         1 3T7       0.227600
     10 C10          5.2460     3.0120     4.1090 cc         1 3T7      -0.267600
     11 N11          6.5900     3.1360     4.2900 na         1 3T7       0.236300
     12 C12          7.5040     3.6340     3.3520 ca         1 3T7      -0.018200
     13 C13          8.8540     3.7070     3.6670 ca         1 3T7      -0.112500
     14 C14          9.7530     4.1980     2.7410 ca         1 3T7      -0.114000
     15 C15          9.3100     4.6160     1.4990 ca         1 3T7      -0.110000
     16 C16          7.9660     4.5440     1.1820 ca         1 3T7      -0.114000
     17 C17          7.0630     4.0490     2.1030 ca         1 3T7      -0.112500
     18 N18          6.8740     2.7170     5.4740 nc         1 3T7      -0.159800
     19 N19          5.8040     2.3340     6.0790 nd         1 3T7      -0.368000
     20 C20          3.2620    -0.2480     6.3390 c3         1 3T7       0.224500
     21 C21          4.6820    -0.7500     6.3010 cd         1 3T7       0.205600
     22 C22          5.7220    -0.2970     7.0390 cc         1 3T7      -0.212600
     23 N23          6.7950    -1.0370     6.6740 na         1 3T7       0.143400
     24 C24          8.1520    -0.9040     7.2100 c3         1 3T7       0.281800
     25 C25          8.6240    -2.2580     7.7450 c3         1 3T7       0.095100
     26 C26         10.0640    -2.1260     8.2480 c3         1 3T7       0.108100
     27 C27         10.9470    -1.6110     7.1080 c3         1 3T7       0.101100
     28 C28         10.3850    -0.2810     6.5980 c3         1 3T7       0.144100
     29 C29         11.2260     0.2100     5.4180 c3         1 3T7       0.153400
     30 O30         10.7750     1.5050     5.0180 oh         1 3T7      -0.604800
     31 O31          9.0330    -0.4680     6.1740 os         1 3T7      -0.401600
     32 O32         12.2790    -1.4140     7.5850 oh         1 3T7      -0.598800
     33 O33         10.5390    -3.4020     8.6810 oh         1 3T7      -0.598800
     34 O34          7.7770    -2.6700     8.8200 oh         1 3T7      -0.598800
     35 N35          6.4180    -1.8770     5.7750 nc         1 3T7      -0.191800
     36 N36          5.1630    -1.7360     5.5340 nd         1 3T7      -0.354000
     37 S37          2.3730     1.4170     2.6390 ss         1 3T7      -0.191800
     38 N38          1.8890    -1.4490    -0.6490 nz         1 3T7      -0.804500
     39 O39          2.1980     0.9990    -0.6470 o          1 3T7      -0.515300
     40 H1           2.6720     2.7780     4.9460 h1         1 3T7       0.084700
     41 H2           3.1160     2.3710     6.6100 h1         1 3T7       0.084700
     42 H3           4.7250     3.0570     3.1600 h4         1 3T7       0.181000
     43 H4           9.2020     3.3800     4.6400 ha         1 3T7       0.154000
     44 H5          10.8070     4.2560     2.9870 ha         1 3T7       0.144500
     45 H6          10.0170     5.0030     0.7750 ha         1 3T7       0.145000
     46 H7           7.6210     4.8700     0.2080 ha         1 3T7       0.144500
     47 H8           6.0100     3.9930     1.8530 ha         1 3T7       0.154000
     48 H9           2.5810    -1.0750     6.1800 h1         1 3T7       0.089700
     49 H10          3.0630     0.2020     7.3040 h1         1 3T7       0.089700
     50 H11          5.7470     0.6270     7.6040 h4         1 3T7       0.211000
     51 H12          8.1570    -0.1780     8.0140 h2         1 3T7       0.085700
     52 H13          8.5880    -2.9920     6.9480 h1         1 3T7       0.081700
     53 H14         10.0950    -1.4240     9.0730 h1         1 3T7       0.062700
     54 H15         10.9500    -2.3330     6.3010 h1         1 3T7       0.062700
     55 H16         10.4130     0.4510     7.3960 h1         1 3T7       0.066700
     56 H17         12.2670     0.2660     5.7140 h1         1 3T7       0.051200
     57 H18         11.1240    -0.4800     4.5890 h1         1 3T7       0.051200
     58 H19         11.5180     2.0450     4.8030 ho         1 3T7       0.403000
     59 H20         12.8180    -2.1420     7.3240 ho         1 3T7       0.421000
     60 H21         10.7830    -3.3550     9.5900 ho         1 3T7       0.422000
     61 H22          7.6600    -3.6050     8.7880 ho         1 3T7       0.427000
     62 H23          2.8830    -1.5440    -0.5740 hn         1 3T7       0.497800
     63 H24          1.6230    -1.4840    -1.6140 hn         1 3T7       0.497800
     64 H383         1.4450    -2.1960    -0.1530 hn         1 3T7       0.497800
@<TRIPOS>BOND
     1    33    26 1   
     2    26    27 1   
     3    26    25 1   
     4    34    25 1   
     5    32    27 1   
     6    27    28 1   
     7    25    24 1   
     8    30    29 1   
     9    28    29 1   
    10    28    31 1   
    11    24    31 1   
    12    24    23 1   
    13    35    23 1   
    14    35    36 2   
    15    23    22 1   
    16    36    21 1   
    17    22    21 2   
    18    21    20 1   
    19     8     9 1   
    20     8     7 1   
    21    10     9 2   
    22    10    11 1   
    23     9    19 1   
    24    17    16 ar  
    25    17    12 ar  
    26     7    20 1   
    27     7     6 1   
    28    16    15 ar  
    29    11    12 1   
    30    11    18 1   
    31    12    13 ar  
    32    15    14 ar  
    33     6     5 2   
    34     6    37 1   
    35    19    18 2   
    36     5     4 1   
    37    13    14 ar  
    38    37     3 1   
    39     4     3 2   
    40     3     2 1   
    41    38     2 1   
    42    39     2 2   
    43     2     1 2   
    44     8    40 1   
    45     8    41 1   
    46    10    42 1   
    47    13    43 1   
    48    14    44 1   
    49    15    45 1   
    50    16    46 1   
    51    17    47 1   
    52    20    48 1   
    53    20    49 1   
    54    22    50 1   
    55    24    51 1   
    56    25    52 1   
    57    26    53 1   
    58    27    54 1   
    59    28    55 1   
    60    29    56 1   
    61    29    57 1   
    62    30    58 1   
    63    32    59 1   
    64    33    60 1   
    65    34    61 1   
    66    38    62 1   
    67    38    63 1   
    68    64    38 1   
@<TRIPOS>SUBSTRUCTURE
     1 3T7         1 TEMP              0 ****  ****    0 ROOT
