@<TRIPOS>MOLECULE
3T7
   64    68     1     0     0
SMALL
bcc


@<TRIPOS>ATOM
      1 O01          0.0000     0.0000     0.0000 o          1 3T7      -0.491800
      2 S02          1.4220     0.0000     0.0000 sy         1 3T7       0.912800
      3 C03          1.9200     0.0000     1.6900 cc         1 3T7       0.156300
      4 N04          2.0230    -1.0390     2.4530 nd         1 3T7      -0.131000
      5 N05          2.3950    -0.8630     3.6450 nd         1 3T7      -0.378000
      6 C06          2.6500     0.3580     4.0240 cc         1 3T7       0.628300
      7 N07          3.0700     0.7520     5.2850 nh         1 3T7      -0.297300
      8 C08          3.3190     2.1680     5.5650 c3         1 3T7       0.146500
      9 C09          4.7590     2.4940     5.2610 cc         1 3T7       0.211600
     10 C10          5.2460     3.0120     4.1090 cd         1 3T7      -0.457600
     11 N11          6.5900     3.1360     4.2900 na         1 3T7       0.777300
     12 C12          7.5040     3.6340     3.3520 ca         1 3T7      -0.221200
     13 C13          8.8540     3.7070     3.6670 ca         1 3T7      -0.069500
     14 C14          9.7530     4.1980     2.7410 ca         1 3T7      -0.088500
     15 C15          9.3100     4.6160     1.4990 ca         1 3T7      -0.064000
     16 C16          7.9660     4.5440     1.1820 ca         1 3T7      -0.088500
     17 C17          7.0630     4.0490     2.1030 ca         1 3T7      -0.069500
     18 N18          6.8740     2.7170     5.4740 nd         1 3T7      -0.361800
     19 N19          5.8040     2.3340     6.0790 nc         1 3T7      -0.317000
     20 C20          3.2620    -0.2480     6.3390 c3         1 3T7       0.157500
     21 C21          4.6820    -0.7500     6.3010 cc         1 3T7       0.187600
     22 C22          5.7220    -0.2970     7.0390 cd         1 3T7      -0.385600
     23 N23          6.7950    -1.0370     6.6740 na         1 3T7       0.620400
     24 C24          8.1520    -0.9040     7.2100 c3         1 3T7       0.159800
     25 C25          8.6240    -2.2580     7.7450 c3         1 3T7       0.126100
     26 C26         10.0640    -2.1260     8.2480 c3         1 3T7       0.147100
     27 C27         10.9470    -1.6110     7.1080 c3         1 3T7       0.139100
     28 C28         10.3850    -0.2810     6.5980 c3         1 3T7       0.166100
     29 C29         11.2260     0.2100     5.4180 c3         1 3T7       0.227400
     30 O30         10.7750     1.5050     5.0180 oh         1 3T7      -0.591800
     31 O31          9.0330    -0.4680     6.1740 os         1 3T7      -0.383600
     32 O32         12.2790    -1.4140     7.5850 oh         1 3T7      -0.578800
     33 O33         10.5390    -3.4020     8.6810 oh         1 3T7      -0.581800
     34 O34          7.7770    -2.6700     8.8200 oh         1 3T7      -0.584800
     35 N35          6.4180    -1.8770     5.7750 nd         1 3T7      -0.365800
     36 N36          5.1630    -1.7360     5.5340 nc         1 3T7      -0.306000
     37 S37          2.3730     1.4170     2.6390 ss         1 3T7      -0.297800
     38 N38          1.8890    -1.4490    -0.6490 nz         1 3T7      -0.113500
     39 O39          2.1980     0.9990    -0.6470 o          1 3T7      -0.491800
     40 H1           2.6720     2.7780     4.9460 h1         1 3T7       0.051700
     41 H2           3.1160     2.3710     6.6100 h1         1 3T7       0.051700
     42 H3           4.7250     3.0570     3.1600 h4         1 3T7       0.171000
     43 H4           9.2020     3.3800     4.6400 ha         1 3T7       0.129500
     44 H5          10.8070     4.2560     2.9870 ha         1 3T7       0.114000
     45 H6          10.0170     5.0030     0.7750 ha         1 3T7       0.113000
     46 H7           7.6210     4.8700     0.2080 ha         1 3T7       0.114000
     47 H8           6.0100     3.9930     1.8530 ha         1 3T7       0.129500
     48 H9           2.5810    -1.0750     6.1800 h1         1 3T7       0.055200
     49 H10          3.0630     0.2020     7.3040 h1         1 3T7       0.055200
     50 H11          5.7470     0.6270     7.6040 h4         1 3T7       0.193000
     51 H12          8.1570    -0.1780     8.0140 h2         1 3T7       0.051700
     52 H13          8.5880    -2.9920     6.9480 h1         1 3T7       0.047700
     53 H14         10.0950    -1.4240     9.0730 h1         1 3T7       0.028700
     54 H15         10.9500    -2.3330     6.3010 h1         1 3T7       0.027700
     55 H16         10.4130     0.4510     7.3960 h1         1 3T7       0.033700
     56 H17         12.2670     0.2660     5.7140 h1         1 3T7       0.009700
     57 H18         11.1240    -0.4800     4.5890 h1         1 3T7       0.009700
     58 H19         11.5180     2.0450     4.8030 ho         1 3T7       0.391000
     59 H20         12.8180    -2.1420     7.3240 ho         1 3T7       0.407000
     60 H21         10.7830    -3.3550     9.5900 ho         1 3T7       0.408000
     61 H22          7.6600    -3.6050     8.7880 ho         1 3T7       0.415000
     62 H23          2.8830    -1.5440    -0.5740 hn         1 3T7       0.315800
     63 H24          1.6230    -1.4840    -1.6140 hn         1 3T7       0.315800
     64 H383         1.4450    -2.1960    -0.1530 hn         1 3T7       0.315800
@<TRIPOS>BOND
     1     1     2 2   
     2     2     3 1   
     3     2    38 1   
     4     2    39 2   
     5     3     4 2   
     6     3    37 1   
     7     4     5 1   
     8     5     6 2   
     9     6     7 1   
    10     6    37 1   
    11     7     8 1   
    12     7    20 1   
    13     8     9 1   
    14     8    40 1   
    15     8    41 1   
    16     9    10 2   
    17     9    19 1   
    18    10    11 1   
    19    10    42 1   
    20    11    12 1   
    21    11    18 1   
    22    12    13 ar  
    23    12    17 ar  
    24    13    14 ar  
    25    13    43 1   
    26    14    15 ar  
    27    14    44 1   
    28    15    16 ar  
    29    15    45 1   
    30    16    17 ar  
    31    16    46 1   
    32    17    47 1   
    33    18    19 2   
    34    20    21 1   
    35    20    48 1   
    36    20    49 1   
    37    21    22 2   
    38    21    36 1   
    39    22    23 1   
    40    22    50 1   
    41    23    24 1   
    42    23    35 1   
    43    24    25 1   
    44    24    31 1   
    45    24    51 1   
    46    25    26 1   
    47    25    34 1   
    48    25    52 1   
    49    26    27 1   
    50    26    33 1   
    51    26    53 1   
    52    27    28 1   
    53    27    32 1   
    54    27    54 1   
    55    28    29 1   
    56    28    31 1   
    57    28    55 1   
    58    29    30 1   
    59    29    56 1   
    60    29    57 1   
    61    30    58 1   
    62    32    59 1   
    63    33    60 1   
    64    34    61 1   
    65    35    36 2   
    66    38    62 1   
    67    38    63 1   
    68    38    64 1   
@<TRIPOS>SUBSTRUCTURE
     1 3T7         1 TEMP              0 ****  ****    0 ROOT
