@<TRIPOS>MOLECULE
molecule
   67    71     1     0     0
SMALL
bcc


@<TRIPOS>ATOM
      1 C1           0.0000     0.0000     0.0000 c3         1 3T8       0.104300
      2 N2           1.4640     0.0000     0.0000 ns         1 3T8      -0.586900
      3 C3           2.1390     0.0000     1.1670 c          1 3T8       0.671700
      4 O4           1.5310    -0.0000     2.2200 o          1 3T8      -0.605100
      5 C5           3.6160    -0.0010     1.1680 ca         1 3T8      -0.132600
      6 C6           4.3110     0.0010    -0.0450 ca         1 3T8      -0.115000
      7 C7           5.6890    -0.0160    -0.0520 ca         1 3T8      -0.109000
      8 C8           6.3810    -0.0310     1.1520 ca         1 3T8      -0.024000
      9 C9           5.6890    -0.0020     2.3780 ca         1 3T8       0.126100
     10 C10          4.3110     0.0060     2.3810 ca         1 3T8      -0.087000
     11 O11          6.4080     0.0740     3.5200 os         1 3T8      -0.349900
     12 C12          7.0100    -1.0940     4.0770 c3         1 3T8       0.157400
     13 C13          7.7150    -1.9140     3.0000 c3         1 3T8      -0.057100
     14 C14          8.4930    -1.0020     2.0700 cc         1 3T8      -0.123300
     15 C15          7.8570    -0.1260     1.2130 cd         1 3T8       0.015900
     16 S16          9.0300     0.7830     0.2840 ss         1 3T8      -0.062800
     17 C17         10.3580    -0.0530     1.0770 cd         1 3T8      -0.130700
     18 C18          9.8630    -0.9490     1.9800 cc         1 3T8      -0.063000
     19 C19         11.7790     0.1770     0.8090 c          1 3T8       0.719700
     20 O20         12.6230    -0.3770     1.4890 o          1 3T8      -0.587100
     21 N21         12.1520     1.0020    -0.1880 n          1 3T8      -0.409000
     22 C22         13.5700     1.1500    -0.5260 c3         1 3T8       0.113300
     23 C23         11.1890     1.7170    -0.8990 ca         1 3T8       0.042600
     24 C24         10.8030     2.9810    -0.4670 ca         1 3T8      -0.119000
     25 C25          9.8510     3.6890    -1.1660 ca         1 3T8      -0.116000
     26 C26          9.2740     3.1360    -2.3130 ca         1 3T8      -0.126600
     27 C27          9.6640     1.8660    -2.7450 ca         1 3T8      -0.072000
     28 C28         10.6200     1.1650    -2.0440 ca         1 3T8       0.022400
     29 Cl29        11.1100    -0.4110    -2.5840 cl         1 3T8      -0.074400
     30 C30          8.2540     3.8920    -3.0650 c          1 3T8       0.676700
     31 O31          7.3560     3.3030    -3.6340 o          1 3T8      -0.604100
     32 N32          8.3170     5.2380    -3.1210 n          1 3T8      -0.485800
     33 C33          7.2480     6.0180    -3.7630 c3         1 3T8       0.099000
     34 C34          7.8860     6.9790    -4.7710 c3         1 3T8       0.144800
     35 N35          8.9190     7.7780    -4.0960 n3         1 3T8      -0.732600
     36 C36         10.0080     6.9290    -3.5970 c3         1 3T8       0.144800
     37 C37          9.4540     5.9650    -2.5350 c3         1 3T8       0.099000
     38 C38          9.4350     8.8290    -4.9830 c3         1 3T8       0.153100
     39 H1          -0.3610     0.8840     0.5120 h1         1 3T8       0.042367
     40 H1A         -0.3610    -0.8850     0.5100 h1         1 3T8       0.042367
     41 H1B         -0.3610     0.0010    -1.0210 h1         1 3T8       0.042367
     42 HN2          1.9650    -0.0010    -0.8670 hn         1 3T8       0.314500
     43 H6           3.7650     0.0200    -0.9810 ha         1 3T8       0.130000
     44 H7           6.2290    -0.0150    -0.9910 ha         1 3T8       0.146000
     45 H10          3.7710     0.1210     3.3130 ha         1 3T8       0.171000
     46 H12          7.7580    -0.7730     4.7930 h1         1 3T8       0.059200
     47 H12A         6.2210    -1.7060     4.4970 h1         1 3T8       0.059200
     48 H13          6.9560    -2.4200     2.4150 hc         1 3T8       0.064200
     49 H13A         8.4200    -2.5740     3.4890 hc         1 3T8       0.064200
     50 H18         10.5060    -1.5760     2.5850 ha         1 3T8       0.166000
     51 H22         14.0970     1.5900     0.3120 h1         1 3T8       0.049033
     52 H22A        13.6700     1.7910    -1.3930 h1         1 3T8       0.049033
     53 H22B        13.9920     0.1770    -0.7460 h1         1 3T8       0.049033
     54 H24         11.2510     3.4090     0.4220 ha         1 3T8       0.157000
     55 H25          9.5500     4.6730    -0.8290 ha         1 3T8       0.156000
     56 H27          9.2200     1.4360    -3.6350 ha         1 3T8       0.171000
     57 H33          6.7100     6.5840    -3.0120 h1         1 3T8       0.067450
     58 H33A         6.5700     5.3490    -4.2790 h1         1 3T8       0.067450
     59 H34          8.3380     6.4110    -5.5750 h1         1 3T8       0.043950
     60 H34A         7.1250     7.6390    -5.1710 h1         1 3T8       0.043950
     61 H36         10.4250     6.3580    -4.4180 h1         1 3T8       0.043950
     62 H36A        10.7760     7.5510    -3.1540 h1         1 3T8       0.043950
     63 H37         10.2250     5.2620    -2.2440 h1         1 3T8       0.067450
     64 H37A         9.1200     6.5280    -1.6720 h1         1 3T8       0.067450
     65 H38          8.6180     9.4630    -5.3050 h1         1 3T8       0.035033
     66 H38A        10.1660     9.4250    -4.4500 h1         1 3T8       0.035033
     67 H38B         9.9020     8.3740    -5.8490 h1         1 3T8       0.035033
@<TRIPOS>BOND
     1     1     2 1   
     2     2     3 1   
     3     3     4 2   
     4     3     5 1   
     5     5     6 ar  
     6     5    10 ar  
     7     6     7 ar  
     8     7     8 ar  
     9     8     9 ar  
    10     8    15 1   
    11     9    10 ar  
    12     9    11 1   
    13    11    12 1   
    14    12    13 1   
    15    13    14 1   
    16    14    15 2   
    17    14    18 1   
    18    15    16 1   
    19    16    17 1   
    20    17    18 2   
    21    17    19 1   
    22    19    20 2   
    23    19    21 1   
    24    21    22 1   
    25    21    23 1   
    26    23    24 ar  
    27    23    28 ar  
    28    24    25 ar  
    29    25    26 ar  
    30    26    27 ar  
    31    26    30 1   
    32    27    28 ar  
    33    28    29 1   
    34    30    31 2   
    35    30    32 1   
    36    32    33 1   
    37    32    37 1   
    38    33    34 1   
    39    34    35 1   
    40    35    36 1   
    41    35    38 1   
    42    36    37 1   
    43     1    39 1   
    44     1    40 1   
    45     1    41 1   
    46     2    42 1   
    47     6    43 1   
    48     7    44 1   
    49    10    45 1   
    50    12    46 1   
    51    12    47 1   
    52    13    48 1   
    53    13    49 1   
    54    18    50 1   
    55    22    51 1   
    56    22    52 1   
    57    22    53 1   
    58    24    54 1   
    59    25    55 1   
    60    27    56 1   
    61    33    57 1   
    62    33    58 1   
    63    34    59 1   
    64    34    60 1   
    65    36    61 1   
    66    36    62 1   
    67    37    63 1   
    68    37    64 1   
    69    38    65 1   
    70    38    66 1   
    71    38    67 1   
@<TRIPOS>SUBSTRUCTURE
     1 3T8         1 TEMP              0 ****  ****    0 ROOT
