@<TRIPOS>MOLECULE
3T8
   67    71     1     0     0
SMALL
bcc


@<TRIPOS>ATOM
      1 C1           0.0000     0.0000     0.0000 c3         1 3T8       0.088300
      2 N2           1.4640     0.0000     0.0000 ns         1 3T8      -0.197900
      3 C3           2.1390     0.0000     1.1670 c          1 3T8       0.591700
      4 O4           1.5310    -0.0000     2.2200 o          1 3T8      -0.646100
      5 C5           3.6160    -0.0010     1.1680 ca         1 3T8      -0.136600
      6 C6           4.3110     0.0010    -0.0450 ca         1 3T8      -0.098000
      7 C7           5.6890    -0.0160    -0.0520 ca         1 3T8      -0.076000
      8 C8           6.3810    -0.0310     1.1520 ca         1 3T8      -0.025000
      9 C9           5.6890    -0.0020     2.3780 ca         1 3T8       0.132100
     10 C10          4.3110     0.0060     2.3810 ca         1 3T8      -0.061000
     11 O11          6.4080     0.0740     3.5200 os         1 3T8      -0.333900
     12 C12          7.0100    -1.0940     4.0770 c3         1 3T8       0.229400
     13 C13          7.7150    -1.9140     3.0000 c3         1 3T8       0.004900
     14 C14          8.4930    -1.0020     2.0700 cc         1 3T8      -0.132300
     15 C15          7.8570    -0.1260     1.2130 cd         1 3T8       0.087900
     16 S16          9.0300     0.7830     0.2840 ss         1 3T8      -0.226800
     17 C17         10.3580    -0.0530     1.0770 cd         1 3T8      -0.085700
     18 C18          9.8630    -0.9490     1.9800 cc         1 3T8      -0.021000
     19 C19         11.7790     0.1770     0.8090 c          1 3T8       0.645700
     20 O20         12.6230    -0.3770     1.4890 o          1 3T8      -0.633100
     21 N21         12.1520     1.0020    -0.1880 n          1 3T8      -0.036000
     22 C22         13.5700     1.1500    -0.5260 c3         1 3T8       0.090300
     23 C23         11.1890     1.7170    -0.8990 ca         1 3T8      -0.089400
     24 C24         10.8030     2.9810    -0.4670 ca         1 3T8      -0.073000
     25 C25          9.8510     3.6890    -1.1660 ca         1 3T8      -0.104000
     26 C26          9.2740     3.1360    -2.3130 ca         1 3T8      -0.120600
     27 C27          9.6640     1.8660    -2.7450 ca         1 3T8      -0.040000
     28 C28         10.6200     1.1650    -2.0440 ca         1 3T8      -0.032600
     29 Cl29        11.1100    -0.4110    -2.5840 cl         1 3T8       0.007600
     30 C30          8.2540     3.8920    -3.0650 c          1 3T8       0.609700
     31 O31          7.3560     3.3030    -3.6340 o          1 3T8      -0.646100
     32 N32          8.3170     5.2380    -3.1210 n          1 3T8      -0.145800
     33 C33          7.2480     6.0180    -3.7630 c3         1 3T8       0.030500
     34 C34          7.8860     6.9790    -4.7710 c3         1 3T8       0.138800
     35 N35          8.9190     7.7780    -4.0960 n3         1 3T8      -0.545600
     36 C36         10.0080     6.9290    -3.5970 c3         1 3T8       0.138800
     37 C37          9.4540     5.9650    -2.5350 c3         1 3T8       0.030500
     38 C38          9.4350     8.8290    -4.9830 c3         1 3T8       0.189100
     39 H1          -0.3610     0.8840     0.5120 h1         1 3T8       0.009700
     40 H1A         -0.3610    -0.8850     0.5100 h1         1 3T8       0.009700
     41 H1B         -0.3610     0.0010    -1.0210 h1         1 3T8       0.009700
     42 HN2          1.9650    -0.0010    -0.8670 hn         1 3T8       0.177500
     43 H6           3.7650     0.0200    -0.9810 ha         1 3T8       0.106000
     44 H7           6.2290    -0.0150    -0.9910 ha         1 3T8       0.120000
     45 H10          3.7710     0.1210     3.3130 ha         1 3T8       0.140000
     46 H12          7.7580    -0.7730     4.7930 h1         1 3T8       0.017200
     47 H12A         6.2210    -1.7060     4.4970 h1         1 3T8       0.017200
     48 H13          6.9560    -2.4200     2.4150 hc         1 3T8       0.032200
     49 H13A         8.4200    -2.5740     3.4890 hc         1 3T8       0.032200
     50 H18         10.5060    -1.5760     2.5850 ha         1 3T8       0.136000
     51 H22         14.0970     1.5900     0.3120 h1         1 3T8       0.015367
     52 H22A        13.6700     1.7910    -1.3930 h1         1 3T8       0.015367
     53 H22B        13.9920     0.1770    -0.7460 h1         1 3T8       0.015367
     54 H24         11.2510     3.4090     0.4220 ha         1 3T8       0.121000
     55 H25          9.5500     4.6730    -0.8290 ha         1 3T8       0.133000
     56 H27          9.2200     1.4360    -3.6350 ha         1 3T8       0.137000
     57 H33          6.7100     6.5840    -3.0120 h1         1 3T8       0.042700
     58 H33A         6.5700     5.3490    -4.2790 h1         1 3T8       0.042700
     59 H34          8.3380     6.4110    -5.5750 h1         1 3T8       0.017200
     60 H34A         7.1250     7.6390    -5.1710 h1         1 3T8       0.017200
     61 H36         10.4250     6.3580    -4.4180 h1         1 3T8       0.017200
     62 H36A        10.7760     7.5510    -3.1540 h1         1 3T8       0.017200
     63 H37         10.2250     5.2620    -2.2440 h1         1 3T8       0.042700
     64 H37A         9.1200     6.5280    -1.6720 h1         1 3T8       0.042700
     65 H38          8.6180     9.4630    -5.3050 h1         1 3T8       0.002367
     66 H38A        10.1660     9.4250    -4.4500 h1         1 3T8       0.002367
     67 H38B         9.9020     8.3740    -5.8490 h1         1 3T8       0.002367
@<TRIPOS>BOND
     1     1     2 1   
     2     1    39 1   
     3     1    40 1   
     4     1    41 1   
     5     2     3 1   
     6     2    42 1   
     7     3     4 2   
     8     3     5 1   
     9     5     6 ar  
    10     5    10 ar  
    11     6     7 ar  
    12     6    43 1   
    13     7     8 ar  
    14     7    44 1   
    15     8     9 ar  
    16     8    15 1   
    17     9    10 ar  
    18     9    11 1   
    19    10    45 1   
    20    11    12 1   
    21    12    13 1   
    22    12    46 1   
    23    12    47 1   
    24    13    14 1   
    25    13    48 1   
    26    13    49 1   
    27    14    15 2   
    28    14    18 1   
    29    15    16 1   
    30    16    17 1   
    31    17    18 2   
    32    17    19 1   
    33    18    50 1   
    34    19    20 2   
    35    19    21 1   
    36    21    22 1   
    37    21    23 1   
    38    22    51 1   
    39    22    52 1   
    40    22    53 1   
    41    23    24 ar  
    42    23    28 ar  
    43    24    25 ar  
    44    24    54 1   
    45    25    26 ar  
    46    25    55 1   
    47    26    27 ar  
    48    26    30 1   
    49    27    28 ar  
    50    27    56 1   
    51    28    29 1   
    52    30    31 2   
    53    30    32 1   
    54    32    33 1   
    55    32    37 1   
    56    33    34 1   
    57    33    57 1   
    58    33    58 1   
    59    34    35 1   
    60    34    59 1   
    61    34    60 1   
    62    35    36 1   
    63    35    38 1   
    64    36    37 1   
    65    36    61 1   
    66    36    62 1   
    67    37    63 1   
    68    37    64 1   
    69    38    65 1   
    70    38    66 1   
    71    38    67 1   
@<TRIPOS>SUBSTRUCTURE
     1 3T8         1 TEMP              0 ****  ****    0 ROOT
