@<TRIPOS>MOLECULE
3T9
   39    42     1     0     0
SMALL
bcc


@<TRIPOS>ATOM
      1 N1          0.2170    0.7720   -0.0040 na        1 3T9      0.060800
      2 C2          1.9300    0.1960    1.3130 ca        1 3T9     -0.225300
      3 C3          0.7400    0.5990    2.0890 ca        1 3T9      0.280300
      4 C4          1.5400    0.3250   -0.0430 cc        1 3T9     -0.039300
      5 N5         -0.2810    0.9400    1.2100 nc        1 3T9     -0.243400
      6 N6          0.7140    0.6170    3.4730 nb        1 3T9     -0.620000
      7 C7          1.8400    0.2490    4.0770 cp        1 3T9      0.490800
      8 C8          3.0910   -0.1810    2.0180 ca        1 3T9     -0.041000
      9 C9          1.8880    0.2430    5.5540 cp        1 3T9     -0.159500
     10 C10         0.8000   -0.2440    6.2910 ca        1 3T9     -0.116000
     11 C11         0.8650   -0.2530    7.6840 ca        1 3T9      0.031100
     12 C12         2.0150    0.2300    8.3510 ca        1 3T9      0.123100
     13 C13         2.2780    0.0690   -1.2630 ca        1 3T9     -0.037800
     14 C14         3.0480   -0.1560    3.3860 ca        1 3T9     -0.255300
     15 C15         3.0230    0.7270    6.2140 ca        1 3T9     -0.106000
     16 C16         3.0940    0.7210    7.6040 ca        1 3T9     -0.146000
     17 O17        -0.1310   -0.7420    8.5160 os        1 3T9     -0.350900
     18 O18         2.1380    0.2350    9.7180 oh        1 3T9     -0.494100
     19 C19         2.0850    0.8630   -2.4030 ca        1 3T9     -0.114500
     20 C20         3.2050   -0.9840   -1.3050 ca        1 3T9     -0.114500
     21 C21        -1.4180   -0.8760    7.9200 c3        1 3T9      0.119700
     22 C22         3.9250   -1.2350   -2.4710 ca        1 3T9     -0.126500
     23 C23         2.8080    0.6040   -3.5660 ca        1 3T9     -0.126500
     24 C24         3.7270   -0.4440   -3.6030 ca        1 3T9     -0.119000
     25 H8          3.9970   -0.4810    1.4710 ha        1 3T9      0.139000
     26 H10        -0.0980   -0.6110    5.7720 ha        1 3T9      0.157000
     27 H14         3.9180   -0.4500    3.9900 ha        1 3T9      0.147000
     28 H15         3.8680    1.1280    5.6340 ha        1 3T9      0.139000
     29 H16         3.9810    1.1020    8.1300 ha        1 3T9      0.154000
     30 HO18        1.3020   -0.0820   10.0960 ho        1 3T9      0.438000
     31 H19         1.3750    1.7030   -2.3820 ha        1 3T9      0.137000
     32 H20         3.3550   -1.6130   -0.4140 ha        1 3T9      0.137000
     33 H21        -2.0860   -1.1000    8.7900 h1        1 3T9      0.047700
     34 H21A       -1.7260    0.0700    7.4140 h1        1 3T9      0.047700
     35 H21B       -1.4180   -1.7270    7.1960 h1        1 3T9      0.047700
     36 H22         4.6490   -2.0630   -2.4970 ha        1 3T9      0.137500
     37 H23         2.6530    1.2320   -4.4560 ha        1 3T9      0.137500
     38 H24         4.2960   -0.6460   -4.5220 ha        1 3T9      0.137000
     39 HN1        -0.3530    0.9550   -0.8000 hn        1 3T9      0.327700
@<TRIPOS>BOND
     1    1    4 1   
     2    1    5 1   
     3    1   39 1   
     4    2    3 ar  
     5    2    4 2   
     6    2    8 ar  
     7    3    5 2   
     8    3    6 ar  
     9    4   13 1   
    10    6    7 ar  
    11    7    9 1   
    12    7   14 ar  
    13    8   14 ar  
    14    8   25 1   
    15    9   10 ar  
    16    9   15 ar  
    17   10   11 ar  
    18   10   26 1   
    19   11   12 ar  
    20   11   17 1   
    21   12   16 ar  
    22   12   18 1   
    23   13   19 ar  
    24   13   20 ar  
    25   14   27 1   
    26   15   16 ar  
    27   15   28 1   
    28   16   29 1   
    29   17   21 1   
    30   18   30 1   
    31   19   23 ar  
    32   19   31 1   
    33   20   22 ar  
    34   20   32 1   
    35   21   33 1   
    36   21   34 1   
    37   21   35 1   
    38   22   24 ar  
    39   22   36 1   
    40   23   24 ar  
    41   23   37 1   
    42   24   38 1   
@<TRIPOS>SUBSTRUCTURE
     1 3T9         1 TEMP              0 ****  ****    0 ROOT
