@<TRIPOS>MOLECULE
molecule
   39    42     1     0     0
SMALL
bcc


@<TRIPOS>ATOM
      1 N1           0.0000     0.0000     0.0000 na         1 3T9       0.036800
      2 C2           1.7680     0.0000     1.3310 ca         1 3T9      -0.305300
      3 C3           0.5480     0.0080     2.1520 ca         1 3T9       0.363300
      4 C4           1.3490     0.0000     0.0000 cc         1 3T9       0.009700
      5 N5          -0.4750     0.0050     1.3160 nc         1 3T9      -0.258400
      6 N6           0.6630     0.0100     3.4880 nb         1 3T9      -0.681000
      7 C7           1.8440     0.0050     4.0710 cp         1 3T9       0.539800
      8 C8           3.0200     0.0000     1.9770 ca         1 3T9      -0.016000
      9 C9           1.9120     0.0070     5.5520 cp         1 3T9      -0.128500
     10 C10          0.7420    -0.0970     6.3040 ca         1 3T9      -0.164000
     11 C11          0.8090    -0.0950     7.6850 ca         1 3T9       0.115100
     12 C12          2.0440     0.0090     8.3220 ca         1 3T9       0.090100
     13 C13          2.2210     0.0000    -1.1910 ca         1 3T9      -0.055800
     14 C14          3.0420    -0.0030     3.3390 ca         1 3T9      -0.288300
     15 C15          3.1460     0.1060     6.1940 ca         1 3T9      -0.134000
     16 C16          3.2070     0.1130     7.5730 ca         1 3T9      -0.141000
     17 O17         -0.3290    -0.1960     8.4220 os         1 3T9      -0.315900
     18 O18          2.1090     0.0110     9.6790 oh         1 3T9      -0.505100
     19 C19          1.9480     0.8550    -2.2620 ca         1 3T9      -0.107500
     20 C20          3.3280    -0.8500    -1.2490 ca         1 3T9      -0.107500
     21 C21         -1.5600    -0.3010     7.7030 c3         1 3T9       0.123700
     22 C22          4.1400    -0.8440    -2.3650 ca         1 3T9      -0.126000
     23 C23          2.7670     0.8500    -3.3700 ca         1 3T9      -0.126000
     24 C24          3.8580     0.0020    -3.4240 ca         1 3T9      -0.114000
     25 H8           3.9400    -0.0060     1.4050 ha         1 3T9       0.135000
     26 H10         -0.2180    -0.1790     5.8080 ha         1 3T9       0.169000
     27 H14          3.9920    -0.0080     3.8610 ha         1 3T9       0.141000
     28 H15          4.0550     0.1860     5.6110 ha         1 3T9       0.136000
     29 H16          4.1660     0.1920     8.0710 ha         1 3T9       0.143000
     30 HO18         2.3000     0.8820     9.9840 ho         1 3T9       0.416000
     31 H19          1.0940     1.5200    -2.2210 ha         1 3T9       0.138000
     32 H20          3.5490    -1.5120    -0.4210 ha         1 3T9       0.138000
     33 H21         -1.5380    -1.1850     7.0770 h1         1 3T9       0.044700
     34 H21A        -1.6920     0.5780     7.0840 h1         1 3T9       0.044700
     35 H21B        -2.3820    -0.3750     8.4050 h1         1 3T9       0.044700
     36 H22          4.9970    -1.5040    -2.4140 ha         1 3T9       0.136500
     37 H23          2.5550     1.5110    -4.2020 ha         1 3T9       0.136500
     38 H24          4.4990     0.0020    -4.2980 ha         1 3T9       0.135000
     39 HN1         -0.5750    -0.0040    -0.8190 hn         1 3T9       0.337700
@<TRIPOS>BOND
     1     5     1 1
     2     1     4 1
     3     3     2 ar
     4     2     4 2
     5     2     8 ar
     6     6     3 ar
     7     5     3 2
     8     4    13 1
     9     6     7 ar
    10     9     7 1
    11     7    14 ar
    12    14     8 ar
    13     8    25 1
    14    10     9 ar
    15     9    15 ar
    16    11    10 ar
    17    10    26 1
    18    17    11 1
    19    11    12 ar
    20    18    12 1
    21    12    16 ar
    22    13    19 ar
    23    13    20 ar
    24    14    27 1
    25    16    15 ar
    26    15    28 1
    27    16    29 1
    28    21    17 1
    29    18    30 1
    30    19    23 ar
    31    19    31 1
    32    20    22 ar
    33    20    32 1
    34    21    33 1
    35    21    34 1
    36    21    35 1
    37    22    24 ar
    38    22    36 1
    39    23    24 ar
    40    23    37 1
    41    24    38 1
    42     1    39 1
@<TRIPOS>SUBSTRUCTURE
     1 3T9         1 TEMP              0 ****  ****    0 ROOT
