@<TRIPOS>MOLECULE
molecule
   56    59     1     0     0
SMALL
bcc


@<TRIPOS>ATOM
      1 C1           0.0000     0.0000     0.0000 ca         1 3TA      -0.385900
      2 Cl1         -6.6310    -0.2900     1.8260 cl         1 3TA      -0.089400
      3 C2           1.3830     0.0000     0.0000 ca         1 3TA       0.515200
      4 N3           2.0270     0.0000     1.1570 nb         1 3TA      -0.782000
      5 C4           1.3620     0.0010     2.3030 ca         1 3TA       0.940900
      6 N5           0.0400    -0.0020     2.3420 nb         1 3TA      -0.789000
      7 C6          -0.6750    -0.0050     1.2110 cp         1 3TA       0.565800
      8 C7          -2.9890     0.7040     0.4700 ca         1 3TA       0.062600
      9 C8          -2.1500    -0.0190     1.3090 cp         1 3TA      -0.167500
     10 N9          -2.5430     1.5330    -0.5450 ns         1 3TA      -0.374100
     11 C10         -1.5550     1.2740    -1.3950 cs         1 3TA       0.414400
     12 C11         -0.7430     0.0110    -1.3080 c3         1 3TA      -0.057100
     13 C12         -4.0720    -0.9010     2.4750 ca         1 3TA      -0.140000
     14 C13         -4.9090    -0.1850     1.6320 ca         1 3TA       0.061400
     15 C14         -4.3740     0.6070     0.6410 ca         1 3TA      -0.157000
     16 C15         -2.7080    -0.8200     2.3190 ca         1 3TA      -0.059000
     17 S16         -1.2200     2.3360    -2.5420 s          1 3TA      -0.495400
     18 N18          2.0710     0.0030     3.4930 nu         1 3TA      -0.742300
     19 C19          3.4620     0.1370     3.4780 ca         1 3TA       0.038300
     20 C20          4.0950     0.8230     2.4450 ca         1 3TA      -0.095000
     21 C21          5.4750     0.9300     2.4740 ca         1 3TA      -0.190600
     22 C22          6.1750     0.3550     3.5190 ca         1 3TA       0.401200
     23 N23          5.5460    -0.2880     4.4830 nb         1 3TA      -0.670000
     24 C24          4.2340    -0.4080     4.4970 ca         1 3TA       0.388600
     25 C25          6.2080     1.6620     1.3790 c3         1 3TA      -0.033100
     26 C26          6.3450     3.1380     1.7560 c3         1 3TA      -0.078400
     27 C27          7.0880     3.8820     0.6430 c3         1 3TA       0.161800
     28 N28          7.2200     5.2990     1.0060 n3         1 3TA      -0.732600
     29 C29          8.0890     5.4650     2.1780 c3         1 3TA       0.150600
     30 C30          7.7120     6.0890    -0.1300 c3         1 3TA       0.150600
     31 C31          3.5640    -1.1530     5.6220 c3         1 3TA      -0.141400
     32 H2           1.9320    -0.0010    -0.9340 h4         1 3TA       0.042100
     33 HN9         -3.0100     2.4120    -0.6490 hn         1 3TA       0.354500
     34 H11         -1.4130    -0.8390    -1.3390 hc         1 3TA       0.087200
     35 H11A        -0.0260    -0.0010    -2.1200 hc         1 3TA       0.087200
     36 H12         -4.4940    -1.5670     3.2190 ha         1 3TA       0.154000
     37 H14         -5.0330     1.1630    -0.0140 ha         1 3TA       0.156000
     38 H15         -2.0580    -1.3810     2.9790 ha         1 3TA       0.161000
     39 HN18         1.5830    -0.0510     4.3650 hn         1 3TA       0.470800
     40 H20          3.5220     1.2640     1.6380 ha         1 3TA       0.171000
     41 H22          7.2550     0.4340     3.5460 h4         1 3TA       0.023100
     42 H25          5.6520     1.5760     0.4530 hc         1 3TA       0.050200
     43 H25A         7.1920     1.2280     1.2510 hc         1 3TA       0.050200
     44 H26          6.9020     3.2240     2.6810 hc         1 3TA       0.053700
     45 H26A         5.3610     3.5710     1.8850 hc         1 3TA       0.053700
     46 H27          8.0730     3.4490     0.5140 h1         1 3TA       0.032700
     47 H27A         6.5320     3.7960    -0.2820 h1         1 3TA       0.032700
     48 H29          8.5440     6.4470     2.1540 h1         1 3TA       0.031700
     49 H29A         8.8630     4.7070     2.1630 h1         1 3TA       0.031700
     50 H29B         7.5000     5.3620     3.0810 h1         1 3TA       0.031700
     51 H30          7.0170     6.0030    -0.9570 h1         1 3TA       0.031700
     52 H30A         8.6830     5.7180    -0.4340 h1         1 3TA       0.031700
     53 H30B         7.7970     7.1280     0.1630 h1         1 3TA       0.031700
     54 H31          2.9090    -0.4800     6.1620 hc         1 3TA       0.051367
     55 H31A         2.9840    -1.9740     5.2170 hc         1 3TA       0.051367
     56 H31B         4.3170    -1.5430     6.2960 hc         1 3TA       0.051367
@<TRIPOS>BOND
     1     3     1 ar
     2     1     7 ar
     3     1    12 1
     4    14     2 1
     5     4     3 ar
     6     3    32 1
     7     4     5 ar
     8    18     5 1
     9     5     6 ar
    10     6     7 ar
    11     7     9 1
    12     9     8 ar
    13     8    10 1
    14     8    15 ar
    15     9    16 ar
    16    11    10 1
    17    10    33 1
    18    12    11 1
    19    11    17 2
    20    12    34 1
    21    12    35 1
    22    16    13 ar
    23    13    14 ar
    24    13    36 1
    25    15    14 ar
    26    15    37 1
    27    16    38 1
    28    18    19 1
    29    18    39 1
    30    24    19 ar
    31    19    20 ar
    32    21    20 ar
    33    20    40 1
    34    22    21 ar
    35    21    25 1
    36    23    22 ar
    37    22    41 1
    38    23    24 ar
    39    31    24 1
    40    25    26 1
    41    25    42 1
    42    25    43 1
    43    26    27 1
    44    26    44 1
    45    26    45 1
    46    28    27 1
    47    27    46 1
    48    27    47 1
    49    28    29 1
    50    28    30 1
    51    29    48 1
    52    29    49 1
    53    29    50 1
    54    30    51 1
    55    30    52 1
    56    30    53 1
    57    31    54 1
    58    31    55 1
    59    31    56 1
@<TRIPOS>SUBSTRUCTURE
     1 3TA         1 TEMP              0 ****  ****    0 ROOT
