@<TRIPOS>MOLECULE
molecule
   78    79     1     0     0
SMALL
bcc


@<TRIPOS>ATOM
      1 N            0.0000     0.0000     0.0000 nz         1 3TB      -0.782600
      2 P            3.7820    -0.9330    -5.5430 p5         1 3TB       1.188900
      3 N0           3.2290    -1.2630    -1.1910 ns         1 3TB      -0.468900
      4 O0           1.2430    -2.1890    -0.8510 o          1 3TB      -0.654100
      5 C1           5.2200    -2.5220    -1.7770 c2         1 3TB      -0.104200
      6 N1           9.3000    -3.9840    -2.4220 ns         1 3TB      -0.583900
      7 C2           5.7930    -3.5460    -1.1950 c2         1 3TB      -0.139400
      8 C3           7.2810    -3.7570    -1.0100 c3         1 3TB      -0.126500
      9 N3          13.0430    -0.3460    -2.5390 nu         1 3TB      -0.866200
     10 C4           7.4550    -5.1060    -0.2820 c3         1 3TB      -0.120400
     11 N4          14.3310     1.4930    -1.9530 n2         1 3TB      -0.792100
     12 C5           6.1480    -5.8720    -0.6090 c3         1 3TB      -0.039400
     13 N5          15.4210    -0.4750    -2.5170 nz         1 3TB      -0.808600
     14 C6           5.0880    -4.7400    -0.5760 c3         1 3TB      -0.052200
     15 C7           7.9660    -3.8030    -2.3520 c          1 3TB       0.645100
     16 C9           9.9660    -4.0280    -3.7260 c3         1 3TB       0.075700
     17 C10          9.8930    -5.4280    -4.2800 c          1 3TB       0.333100
     18 C11         11.4310    -3.6190    -3.5660 c3         1 3TB      -0.121400
     19 C12         11.5060    -2.1560    -3.1230 c3         1 3TB      -0.104400
     20 C13         12.9710    -1.7470    -2.9630 c3         1 3TB       0.234800
     21 C14         14.2660     0.2470    -2.3290 c2         1 3TB       0.692100
     22 O1P          4.0940    -2.1200    -6.3710 o          1 3TB      -0.748833
     23 C20          3.7180    -2.4590    -1.8830 c3         1 3TB       0.125900
     24 C21          3.3140    -2.3960    -3.3570 c3         1 3TB       0.210400
     25 C22          1.9710    -1.2290    -0.7110 c          1 3TB       0.701100
     26 C23          1.4680     0.0000     0.0000 c3         1 3TB      -0.155500
     27 O2P          2.2590    -0.4830    -5.8030 o          1 3TB      -0.748833
     28 C31          1.9780     0.0000     1.4430 c3         1 3TB      -0.041100
     29 C32          1.5790     1.2870     2.1170 ca         1 3TB      -0.119300
     30 C33          2.4160     2.3850     2.0600 ca         1 3TB      -0.134500
     31 C34          2.0510     3.5660     2.6790 ca         1 3TB      -0.107000
     32 C35          0.8470     3.6490     3.3540 ca         1 3TB      -0.108000
     33 C36          0.0090     2.5500     3.4110 ca         1 3TB      -0.107000
     34 C37          0.3730     1.3700     2.7880 ca         1 3TB      -0.134500
     35 O3P          4.7740     0.2720    -5.9380 o          1 3TB      -0.748833
     36 O4P          3.9760    -1.2980    -3.9870 os         1 3TB      -0.596200
     37 HN          -0.3340     0.9170     0.2210 hn         1 3TB       0.455800
     38 HNA         -0.3340    -0.2680    -0.9050 hn         1 3TB       0.455800
     39 HN0          3.8240    -0.4650    -1.0920 hn         1 3TB       0.350500
     40 H1           5.8260    -1.7200    -2.1810 ha         1 3TB       0.167000
     41 HN1          9.8360    -4.0910    -1.5840 hn         1 3TB       0.318500
     42 HN2         11.3920    -5.9970    -5.3490 hn         1 3TB       0.450800
     43 HN2A         9.9270    -6.4460    -5.9160 hn         1 3TB       0.450800
     44 H3           7.6940    -2.9570    -0.4070 hc         1 3TB       0.055700
     45 HN3         12.2030     0.1850    -2.4240 hn         1 3TB       0.504800
     46 H4           8.3350    -5.6150    -0.6580 hc         1 3TB       0.069200
     47 H4A          7.7030    -4.3090     0.4080 hc         1 3TB       0.069200
     48 HN4         15.2200     1.9250    -1.8010 hn         1 3TB       0.438400
     49 H5           6.2010    -6.3200    -1.5940 hc         1 3TB       0.063200
     50 H5A          5.9390    -6.6160     0.1500 hc         1 3TB       0.063200
     51 HN5         15.4260    -1.2630    -1.9000 hn         1 3TB       0.433467
     52 HN5A        16.2120     0.1060    -2.3230 hn         1 3TB       0.433467
     53 H6           4.2230    -5.0160    -1.1670 hc         1 3TB       0.057200
     54 H6A          4.8020    -4.5210     0.4460 hc         1 3TB       0.057200
     55 H9           9.4730    -3.3450    -4.4070 h1         1 3TB       0.121700
     56 H11         11.9440    -3.7370    -4.5120 hc         1 3TB       0.042200
     57 H11A        11.9010    -4.2470    -2.8190 hc         1 3TB       0.042200
     58 H12         10.8270    -1.8520    -3.9110 hc         1 3TB       0.090200
     59 H12A        11.0060    -2.0480    -2.1680 hc         1 3TB       0.090200
     60 H13         13.4850    -1.8640    -3.9100 h1         1 3TB       0.034200
     61 H13A        13.4420    -2.3750    -2.2160 h1         1 3TB       0.034200
     62 H20          3.2860    -3.3420    -1.4270 h1         1 3TB       0.073700
     63 H21          3.5980    -3.3190    -3.8490 h1         1 3TB       0.052200
     64 H21A         2.2420    -2.2620    -3.4320 h1         1 3TB       0.052200
     65 H23          1.4630    -1.0680     0.1800 hx         1 3TB       0.206700
     66 H31          3.0580    -0.0890     1.4440 hc         1 3TB       0.076200
     67 H31A         1.5470    -0.8370     1.9780 hc         1 3TB       0.076200
     68 H33          3.0680     2.4950     1.2020 ha         1 3TB       0.132500
     69 H34          2.7070     4.4260     2.6350 ha         1 3TB       0.148500
     70 H35          0.5620     4.5740     3.8410 ha         1 3TB       0.149000
     71 H36         -0.9350     2.6150     3.9380 ha         1 3TB       0.148500
     72 H37         -0.2830     0.5090     2.8320 ha         1 3TB       0.132500
     73 N2          10.4420    -5.7090    -5.4770 nz         1 3TB      -0.646400
     74 O2           7.3170    -3.6790    -3.3680 o          1 3TB      -0.525100
     75 O3           9.3400    -6.3030    -3.6470 o          1 3TB      -0.456100
     76 HN31        -0.3340    -0.6500     0.6840 hn         1 3TB       0.455800
     77 H53         15.4660    -0.7920    -3.4650 hn         1 3TB       0.433467
     78 H231        10.4070    -4.8950    -6.0590 hn         1 3TB       0.450800
@<TRIPOS>BOND
     1     1    26 1
     2     1    37 1
     3     1    38 1
     4    27     2 1
     5    36     2 1
     6    22     2 1
     7     2    35 1
     8    25     3 1
     9     3    23 1
    10     3    39 1
    11     4    25 2
    12    23     5 1
    13     5     7 2
    14     5    40 1
    15    16     6 1
    16     6    15 1
    17     6    41 1
    18    14     7 1
    19     7     8 1
    20    73    17 1
    21    73    42 1
    22    73    43 1
    23    15    74 2
    24    10     8 1
    25     8    15 1
    26     8    44 1
    27     9    20 1
    28     9    21 1
    29     9    45 1
    30    75    17 2
    31    12    10 1
    32    10    46 1
    33    10    47 1
    34    11    21 2
    35    11    48 1
    36    14    12 1
    37    12    49 1
    38    12    50 1
    39    21    13 1
    40    13    51 1
    41    13    52 1
    42    14    53 1
    43    14    54 1
    44    17    16 1
    45    16    18 1
    46    16    55 1
    47    18    19 1
    48    18    56 1
    49    18    57 1
    50    19    20 1
    51    19    58 1
    52    19    59 1
    53    20    60 1
    54    20    61 1
    55    23    24 1
    56    23    62 1
    57    24    36 1
    58    24    63 1
    59    24    64 1
    60    26    25 1
    61    26    28 1
    62    26    65 1
    63    28    29 1
    64    28    66 1
    65    28    67 1
    66    30    29 ar
    67    29    34 ar
    68    30    31 ar
    69    30    68 1
    70    31    32 ar
    71    31    69 1
    72    32    33 ar
    73    32    70 1
    74    34    33 ar
    75    33    71 1
    76    34    72 1
    77    76     1 1
    78    77    13 1
    79    78    73 1
@<TRIPOS>SUBSTRUCTURE
     1 3TB         1 TEMP              0 ****  ****    0 ROOT
