@<TRIPOS>MOLECULE
3TC
   26    27     1     0     0
SMALL
bcc


@<TRIPOS>ATOM
      1 O1          0.0590   -0.4480    0.0230 o         1 3TC     -0.629500
      2 C1          1.2910   -0.2550   -0.0350 c         1 3TC      0.839900
      3 N2          2.1070   -0.2280    1.0970 nc        1 3TC     -0.727100
      4 C3          3.4320   -0.0300    0.9440 cd        1 3TC      0.760500
      5 N3          4.2570   -0.0630    2.0450 nh        1 3TC     -0.920800
      6 C5          4.0330    0.1900   -0.3700 cd        1 3TC     -0.431600
      7 C7          3.2120    0.1710   -1.4680 cc        1 3TC      0.073600
      8 N1          1.8650   -0.0620   -1.3560 n         1 3TC     -0.406000
      9 C4          0.9640   -0.0300   -2.5010 c3        1 3TC      0.306500
     10 C6          0.7460   -1.4040   -3.1640 c3        1 3TC     -0.043300
     11 O2          1.4100    0.9410   -3.4610 os        1 3TC     -0.405600
     12 C2          1.7090    0.4210   -4.7510 c3        1 3TC      0.181200
     13 S1          1.3040   -1.3270   -4.8360 ss        1 3TC     -0.316200
     14 C8          3.1560    0.7270   -5.1320 c3        1 3TC      0.115400
     15 O3          4.1110   -0.1100   -4.5220 oh        1 3TC     -0.602800
     16 HN31        3.8700   -0.1160    2.9560 hn        1 3TC      0.438800
     17 HN32        5.1870    0.2550    1.9410 hn        1 3TC      0.438800
     18 H5          5.1080    0.3640   -0.4780 ha        1 3TC      0.157000
     19 H7          3.6080    0.3500   -2.4910 h4        1 3TC      0.190000
     20 H4         -0.0290    0.3780   -2.1230 h2        1 3TC      0.128700
     21 H61         1.2800   -2.2260   -2.6300 h1        1 3TC      0.101200
     22 H62        -0.3460   -1.6430   -3.1460 h1        1 3TC      0.101200
     23 H2          1.0300    0.9770   -5.4570 h2        1 3TC      0.095700
     24 H81         3.4210    1.7630   -4.7850 h1        1 3TC      0.067700
     25 H82         3.2490    0.6630   -6.2510 h1        1 3TC      0.067700
     26 HO3         3.8650   -1.0260   -4.7220 ho        1 3TC      0.418000
@<TRIPOS>BOND
     1    1    2 2   
     2    2    3 1   
     3    2    8 1   
     4    3    4 2   
     5    4    5 1   
     6    4    6 1   
     7    5   16 1   
     8    5   17 1   
     9    6    7 2   
    10    6   18 1   
    11    7    8 1   
    12    7   19 1   
    13    8    9 1   
    14    9   10 1   
    15    9   11 1   
    16    9   20 1   
    17   10   13 1   
    18   10   21 1   
    19   10   22 1   
    20   11   12 1   
    21   12   13 1   
    22   12   14 1   
    23   12   23 1   
    24   14   15 1   
    25   14   24 1   
    26   14   25 1   
    27   15   26 1   
@<TRIPOS>SUBSTRUCTURE
     1 3TC         1 TEMP              0 ****  ****    0 ROOT
