@<TRIPOS>MOLECULE
3TE
   49    52     1     0     0
SMALL
bcc


@<TRIPOS>ATOM
      1 C1           0.0000     0.0000     0.0000 cc         1 3TE       0.404300
      2 C2           0.4540     0.0000     2.1830 cd         1 3TE       0.386200
      3 C3           1.7210     0.0000     1.7610 cc         1 3TE      -0.118700
      4 C4           2.9460    -0.0000     2.6380 c3         1 3TE       0.138200
      5 C5           3.3540    -1.4220     2.9310 ca         1 3TE      -0.086300
      6 C6           4.1740    -2.1210     2.0290 ca         1 3TE      -0.022000
      7 S            1.7100     0.0000     0.0000 ss         1 3TE      -0.325300
      8 N1          -0.4450     0.0010     1.2180 nd         1 3TE      -0.552000
      9 C7           4.6310    -1.5210     0.8440 ca         1 3TE      -0.103000
     10 C8           5.4240    -2.2300    -0.0060 ca         1 3TE      -0.094000
     11 N2          -6.8270     0.0350    -3.4520 nb         1 3TE      -0.629000
     12 C9           5.7910    -3.5430     0.2820 ca         1 3TE      -0.102000
     13 C10          5.3670    -4.1560     1.4200 ca         1 3TE      -0.085000
     14 O           -2.6530     0.0110     0.0760 o          1 3TE      -0.539100
     15 C           -2.1390     0.0110    -1.0220 c          1 3TE       0.551100
     16 C15         -3.0030     0.0170    -2.2570 c3         1 3TE      -0.004300
     17 S1          -4.7470     0.0230    -1.7750 ss         1 3TE      -0.304400
     18 C16         -5.5050     0.0290    -3.3650 ca         1 3TE       0.737300
     19 N3          -4.7400     0.0270    -4.4480 nb         1 3TE      -0.629000
     20 C20         -5.2770     0.0320    -5.6550 ca         1 3TE       0.431100
     21 C21         -4.3990     0.0290    -6.8810 c3         1 3TE      -0.042400
     22 C19         -6.6580     0.0370    -5.7820 ca         1 3TE      -0.357600
     23 C17         -7.4290     0.0390    -4.6300 ca         1 3TE       0.431100
     24 C18         -8.9320     0.0460    -4.7190 c3         1 3TE      -0.042400
     25 N           -0.7970     0.0060    -1.1390 ns         1 3TE      -0.072400
     26 C14          2.9350    -2.0320     4.0730 ca         1 3TE      -0.088000
     27 C13          3.3020    -3.3460     4.3610 ca         1 3TE      -0.099000
     28 C12          4.0900    -4.0550     3.5090 ca         1 3TE      -0.085000
     29 C11          4.5460    -3.4570     2.3210 ca         1 3TE      -0.034000
     30 H1           0.1860     0.0010     3.2320 h4         1 3TE       0.005100
     31 H2           3.7540     0.5100     2.1290 hc         1 3TE       0.030200
     32 H3           2.7250     0.5100     3.5680 hc         1 3TE       0.030200
     33 H4           4.3540    -0.5010     0.6070 ha         1 3TE       0.115000
     34 H5           5.7750    -1.7660    -0.9200 ha         1 3TE       0.100000
     35 H6           6.4230    -4.0850    -0.4120 ha         1 3TE       0.101000
     36 H7           5.6610    -5.1770     1.6310 ha         1 3TE       0.106000
     37 H8          -2.7870     0.9010    -2.8440 h1         1 3TE       0.060200
     38 H9          -2.7950    -0.8680    -2.8470 h1         1 3TE       0.060200
     39 H10         -4.5570    -0.8880    -7.4360 hc         1 3TE       0.018533
     40 H11         -4.6490     0.8770    -7.5060 hc         1 3TE       0.018533
     41 H12         -3.3600     0.0950    -6.5810 hc         1 3TE       0.018533
     42 H13         -7.1240     0.0410    -6.7590 ha         1 3TE       0.129000
     43 H14         -9.2580     0.9350    -5.2470 hc         1 3TE       0.018533
     44 H15         -9.3530     0.0440    -3.7210 hc         1 3TE       0.018533
     45 H16         -9.2670    -0.8340    -5.2540 hc         1 3TE       0.018533
     46 H17         -0.3740    -0.0080    -2.0460 hn         1 3TE       0.172500
     47 H18          2.3060    -1.4890     4.7690 ha         1 3TE       0.105000
     48 H19          2.9560    -3.8080     5.2770 ha         1 3TE       0.103000
     49 H20          4.3680    -5.0750     3.7460 ha         1 3TE       0.106000
@<TRIPOS>BOND
     1     1     7 1   
     2     1     8 2   
     3     1    25 1   
     4     2     3 2   
     5     2     8 1   
     6     2    30 1   
     7     3     4 1   
     8     3     7 1   
     9     4     5 1   
    10     4    31 1   
    11     4    32 1   
    12     5     6 ar  
    13     5    26 ar  
    14     6     9 ar  
    15     6    29 ar  
    16     9    10 ar  
    17     9    33 1   
    18    10    12 ar  
    19    10    34 1   
    20    11    18 ar  
    21    11    23 ar  
    22    12    13 ar  
    23    12    35 1   
    24    13    29 ar  
    25    13    36 1   
    26    14    15 2   
    27    15    16 1   
    28    15    25 1   
    29    16    17 1   
    30    16    37 1   
    31    16    38 1   
    32    17    18 1   
    33    18    19 ar  
    34    19    20 ar  
    35    20    21 1   
    36    20    22 ar  
    37    21    39 1   
    38    21    40 1   
    39    21    41 1   
    40    22    23 ar  
    41    22    42 1   
    42    23    24 1   
    43    24    43 1   
    44    24    44 1   
    45    24    45 1   
    46    25    46 1   
    47    26    27 ar  
    48    26    47 1   
    49    27    28 ar  
    50    27    48 1   
    51    28    29 ar  
    52    28    49 1   
@<TRIPOS>SUBSTRUCTURE
     1 3TE         1 TEMP              0 ****  ****    0 ROOT
