@<TRIPOS>MOLECULE
3TF
  133   133     1     0     0
SMALL
bcc


@<TRIPOS>ATOM
      1 C1          0.8940    0.0580    0.7170 c3        1 3TF      0.331900
      2 O1          0.2980   -1.1290    1.1970 os        1 3TF     -0.421600
      3 C2          2.3540    0.1350    1.2070 c3        1 3TF      0.136100
      4 O2          3.0530   -0.9870    0.7090 oh        1 3TF     -0.589800
      5 C3          2.3730    0.1850    2.7410 c3        1 3TF      0.065100
      6 O3          3.7290    0.3380    3.1350 oh        1 3TF     -0.609800
      7 C4          1.5370    1.3920    3.1980 c3        1 3TF      0.091100
      8 O4          1.4660    1.4270    4.6140 oh        1 3TF     -0.590800
      9 C5          0.1050    1.2340    2.6630 c3        1 3TF      0.105100
     10 O5          0.1240    1.1290    1.2360 os        1 3TF     -0.444600
     11 C6         -0.7530    2.4630    2.9810 c3        1 3TF      0.136400
     12 O6         -2.1070    2.1120    3.1600 oh        1 3TF     -0.608800
     13 C7         -0.8680   -1.5020    0.4580 c3        1 3TF      0.100400
     14 O7          0.1840   -4.0620    1.4660 os        1 3TF     -0.420900
     15 C8         -1.6990   -2.4780    1.2870 c3        1 3TF      0.128100
     16 O8         -1.7400   -2.1000    2.6720 os        1 3TF     -0.419900
     17 C9         -1.2180   -3.9290    1.2560 c3        1 3TF      0.135400
     18 O9         -3.1940   -0.4890    2.1310 o         1 3TF     -0.563000
     19 C10         1.0000   -4.1750    0.3700 c         1 3TF      0.647100
     20 O10         0.4850   -4.1690   -0.7510 o         1 3TF     -0.560000
     21 C11         2.4430   -4.2810    0.7460 c3        1 3TF     -0.132400
     22 C12         3.1860   -5.2110   -0.1900 c3        1 3TF     -0.078400
     23 C13         4.6680   -5.2090    0.1170 c3        1 3TF     -0.077400
     24 C14         5.4150   -6.1550   -0.7980 c3        1 3TF     -0.079400
     25 C15         6.8980   -6.1560   -0.4940 c3        1 3TF     -0.078400
     26 C16         7.6450   -7.1050   -1.4050 c3        1 3TF     -0.079400
     27 C17         9.1270   -7.1090   -1.0980 c3        1 3TF     -0.078400
     28 C18         9.8750   -8.0600   -2.0070 c3        1 3TF     -0.079400
     29 C19        11.3570   -8.0650   -1.6980 c3        1 3TF     -0.078400
     30 C20        12.1050   -9.0180   -2.6050 c3        1 3TF     -0.079400
     31 C21        13.5860   -9.0240   -2.2940 c3        1 3TF     -0.078400
     32 C22        14.3340   -9.9780   -3.2000 c3        1 3TF     -0.079400
     33 C23        15.8150   -9.9840   -2.8890 c3        1 3TF     -0.079400
     34 C24        16.5650  -10.9380   -3.7940 c3        1 3TF     -0.080400
     35 C25        18.0400  -10.9470   -3.4890 c3        1 3TF     -0.092100
     36 C26        -2.5680   -1.0690    3.0230 c         1 3TF      0.639100
     37 C27        -2.5590   -0.7870    4.4930 c3        1 3TF     -0.137400
     38 C28        -3.8940   -1.1430    5.1140 c3        1 3TF     -0.073400
     39 C29        -3.9140   -0.7740    6.5820 c3        1 3TF     -0.078400
     40 C30        -5.2400   -1.1360    7.2160 c3        1 3TF     -0.079400
     41 C31        -5.2590   -0.7770    8.6870 c3        1 3TF     -0.079400
     42 C32        -6.5840   -1.1400    9.3220 c3        1 3TF     -0.079400
     43 C33        -6.6010   -0.7910   10.7950 c3        1 3TF     -0.079400
     44 C34        -7.9260   -1.1540   11.4310 c3        1 3TF     -0.077400
     45 C35        -7.9370   -0.8110   12.9060 c3        1 3TF     -0.049200
     46 C36        -9.2230   -1.1600   13.5540 c2        1 3TF     -0.174200
     47 C37        -9.4530   -1.0290   14.8650 c2        1 3TF     -0.174200
     48 C38        -8.4490   -0.5240   15.8310 c3        1 3TF     -0.049200
     49 C39        -9.0050   -0.4170   17.2350 c3        1 3TF     -0.077400
     50 C40        -7.9600    0.1020   18.1990 c3        1 3TF     -0.079400
     51 C41        -8.5130    0.2090   19.6040 c3        1 3TF     -0.079400
     52 C42        -7.4700    0.7290   20.5690 c3        1 3TF     -0.080400
     53 C43        -8.0160    0.8360   21.9700 c3        1 3TF     -0.092100
     54 H1          0.8310    0.1620   -0.4010 h2        1 3TF      0.094700
     55 H2          2.8130    1.0780    0.7930 h1        1 3TF      0.060700
     56 HO2         3.9270   -0.9620    1.1240 ho        1 3TF      0.421000
     57 H3          1.9420   -0.7670    3.1580 h1        1 3TF      0.088700
     58 HO3         3.7790    0.0660    4.0590 ho        1 3TF      0.412000
     59 H4          1.9940    2.3420    2.8070 h1        1 3TF      0.057700
     60 HO4         2.3320    1.7230    4.9200 ho        1 3TF      0.406000
     61 H5         -0.3630    0.3040    3.0960 h1        1 3TF      0.080700
     62 H6         -0.6470    3.2280    2.1660 h1        1 3TF      0.062700
     63 H6A        -0.4330    2.8940    3.9680 h1        1 3TF      0.062700
     64 HO6        -2.4130    1.6860    2.3460 ho        1 3TF      0.424000
     65 H7         -0.5430   -2.0010   -0.4950 h1        1 3TF      0.065200
     66 H7A        -1.4850   -0.5890    0.2400 h1        1 3TF      0.065200
     67 H8         -2.7520   -2.4540    0.8740 h1        1 3TF      0.075700
     68 H9         -1.6680   -4.4930    2.1190 h1        1 3TF      0.077700
     69 H9A        -1.5210   -4.3880    0.2770 h1        1 3TF      0.077700
     70 H11         2.8690   -3.2390    0.6910 hc        1 3TF      0.089200
     71 H11A        2.5320   -4.6330    1.8080 hc        1 3TF      0.089200
     72 H12         2.7800   -6.2520   -0.0880 hc        1 3TF      0.055700
     73 H12A        3.0120   -4.8900   -1.2510 hc        1 3TF      0.055700
     74 H13         4.8330   -5.5090    1.1850 hc        1 3TF      0.040200
     75 H13A        5.0750   -4.1700   -0.0030 hc        1 3TF      0.040200
     76 H14         5.2500   -5.8550   -1.8660 hc        1 3TF      0.042700
     77 H14A        5.0060   -7.1940   -0.6800 hc        1 3TF      0.042700
     78 H15         7.3070   -5.1180   -0.6140 hc        1 3TF      0.039200
     79 H15A        7.0620   -6.4540    0.5760 hc        1 3TF      0.039200
     80 H16         7.4830   -6.8060   -2.4740 hc        1 3TF      0.040200
     81 H16A        7.2340   -8.1420   -1.2870 hc        1 3TF      0.040200
     82 H17         9.2890   -7.4060   -0.0280 hc        1 3TF      0.039200
     83 H17A        9.5390   -6.0720   -1.2180 hc        1 3TF      0.039200
     84 H18         9.7150   -7.7620   -3.0770 hc        1 3TF      0.039700
     85 H18A        9.4630   -9.0960   -1.8880 hc        1 3TF      0.039700
     86 H19        11.7700   -7.0280   -1.8190 hc        1 3TF      0.039700
     87 H19A       11.5170   -8.3610   -0.6270 hc        1 3TF      0.039700
     88 H20        11.9460   -8.7220   -3.6750 hc        1 3TF      0.039700
     89 H20A       11.6910  -10.0540   -2.4840 hc        1 3TF      0.039700
     90 H21        13.7450   -9.3190   -1.2230 hc        1 3TF      0.039700
     91 H21A       14.0000   -7.9880   -2.4150 hc        1 3TF      0.039700
     92 H22        14.1760   -9.6820   -4.2710 hc        1 3TF      0.039700
     93 H22A       13.9200  -11.0140   -3.0790 hc        1 3TF      0.039700
     94 H23        16.2300   -8.9480   -3.0100 hc        1 3TF      0.039700
     95 H23A       15.9740  -10.2800   -1.8180 hc        1 3TF      0.039700
     96 H24        16.1490  -11.9730   -3.6720 hc        1 3TF      0.038700
     97 H24A       16.4030  -10.6430   -4.8650 hc        1 3TF      0.038700
     98 H25        18.4780   -9.9290   -3.6290 hc        1 3TF      0.032700
     99 H25A       18.2230  -11.2630   -2.4330 hc        1 3TF      0.032700
    100 H25B       18.5730  -11.6560   -4.1670 hc        1 3TF      0.032700
    101 H27        -1.7320   -1.3630    4.9860 hc        1 3TF      0.091700
    102 H27A       -2.3510    0.3140    4.6150 hc        1 3TF      0.091700
    103 H28        -4.7150   -0.5990    4.5740 hc        1 3TF      0.052200
    104 H28A       -4.0850   -2.2420    4.9970 hc        1 3TF      0.052200
    105 H29        -3.7290    0.3270    6.6960 hc        1 3TF      0.044200
    106 H29A       -3.0830   -1.3070    7.1160 hc        1 3TF      0.044200
    107 H30        -6.0690   -0.5980    6.6860 hc        1 3TF      0.041200
    108 H30A       -5.4280   -2.2360    7.0950 hc        1 3TF      0.041200
    109 H31        -5.0730    0.3230    8.8080 hc        1 3TF      0.040700
    110 H31A       -4.4290   -1.3140    9.2160 hc        1 3TF      0.040700
    111 H32        -6.7750   -2.2380    9.1940 hc        1 3TF      0.040200
    112 H32A       -7.4140   -0.5980    8.7980 hc        1 3TF      0.040200
    113 H33        -5.7700   -1.3330   11.3190 hc        1 3TF      0.039700
    114 H33A       -6.4100    0.3070   10.9230 hc        1 3TF      0.039700
    115 H34        -8.1180   -2.2510   11.2980 hc        1 3TF      0.041700
    116 H34A       -8.7550   -0.6070   10.9100 hc        1 3TF      0.041700
    117 H35        -7.0970   -1.3510   13.4240 hc        1 3TF      0.047200
    118 H35A       -7.7410    0.2890   13.0370 hc        1 3TF      0.047200
    119 H36       -10.0110   -1.5440   12.8870 ha        1 3TF      0.122000
    120 H37       -10.4330   -1.3040   15.2880 ha        1 3TF      0.122000
    121 H38        -7.5560   -1.2090   15.8320 hc        1 3TF      0.047700
    122 H38A       -8.0800    0.4840   15.4940 hc        1 3TF      0.047700
    123 H39        -9.3640   -1.4240   17.5760 hc        1 3TF      0.041700
    124 H39A       -9.8930    0.2690   17.2370 hc        1 3TF      0.041700
    125 H40        -7.0720   -0.5830   18.1960 hc        1 3TF      0.039700
    126 H40A       -7.6020    1.1100   17.8590 hc        1 3TF      0.039700
    127 H41        -8.8700   -0.7980   19.9450 hc        1 3TF      0.039700
    128 H41A       -9.4020    0.8930   19.6080 hc        1 3TF      0.039700
    129 H42        -6.5800    0.0450   20.5630 hc        1 3TF      0.038700
    130 H42A       -7.1130    1.7360   20.2260 hc        1 3TF      0.038700
    131 H43        -8.3540   -0.1630   22.3380 hc        1 3TF      0.032700
    132 H43A       -8.8880    1.5340   22.0010 hc        1 3TF      0.032700
    133 H43B       -7.2310    1.2220   22.6640 hc        1 3TF      0.032700
@<TRIPOS>BOND
     1    1    2 1   
     2    1    3 1   
     3    1   10 1   
     4    1   54 1   
     5    2   13 1   
     6    3    4 1   
     7    3    5 1   
     8    3   55 1   
     9    4   56 1   
    10    5    6 1   
    11    5    7 1   
    12    5   57 1   
    13    6   58 1   
    14    7    8 1   
    15    7    9 1   
    16    7   59 1   
    17    8   60 1   
    18    9   10 1   
    19    9   11 1   
    20    9   61 1   
    21   11   12 1   
    22   11   62 1   
    23   11   63 1   
    24   12   64 1   
    25   13   15 1   
    26   13   65 1   
    27   13   66 1   
    28   14   17 1   
    29   14   19 1   
    30   15   16 1   
    31   15   17 1   
    32   15   67 1   
    33   16   36 1   
    34   17   68 1   
    35   17   69 1   
    36   18   36 2   
    37   19   20 2   
    38   19   21 1   
    39   21   22 1   
    40   21   70 1   
    41   21   71 1   
    42   22   23 1   
    43   22   72 1   
    44   22   73 1   
    45   23   24 1   
    46   23   74 1   
    47   23   75 1   
    48   24   25 1   
    49   24   76 1   
    50   24   77 1   
    51   25   26 1   
    52   25   78 1   
    53   25   79 1   
    54   26   27 1   
    55   26   80 1   
    56   26   81 1   
    57   27   28 1   
    58   27   82 1   
    59   27   83 1   
    60   28   29 1   
    61   28   84 1   
    62   28   85 1   
    63   29   30 1   
    64   29   86 1   
    65   29   87 1   
    66   30   31 1   
    67   30   88 1   
    68   30   89 1   
    69   31   32 1   
    70   31   90 1   
    71   31   91 1   
    72   32   33 1   
    73   32   92 1   
    74   32   93 1   
    75   33   34 1   
    76   33   94 1   
    77   33   95 1   
    78   34   35 1   
    79   34   96 1   
    80   34   97 1   
    81   35   98 1   
    82   35   99 1   
    83   35  100 1   
    84   36   37 1   
    85   37   38 1   
    86   37  101 1   
    87   37  102 1   
    88   38   39 1   
    89   38  103 1   
    90   38  104 1   
    91   39   40 1   
    92   39  105 1   
    93   39  106 1   
    94   40   41 1   
    95   40  107 1   
    96   40  108 1   
    97   41   42 1   
    98   41  109 1   
    99   41  110 1   
   100   42   43 1   
   101   42  111 1   
   102   42  112 1   
   103   43   44 1   
   104   43  113 1   
   105   43  114 1   
   106   44   45 1   
   107   44  115 1   
   108   44  116 1   
   109   45   46 1   
   110   45  117 1   
   111   45  118 1   
   112   46   47 2   
   113   46  119 1   
   114   47   48 1   
   115   47  120 1   
   116   48   49 1   
   117   48  121 1   
   118   48  122 1   
   119   49   50 1   
   120   49  123 1   
   121   49  124 1   
   122   50   51 1   
   123   50  125 1   
   124   50  126 1   
   125   51   52 1   
   126   51  127 1   
   127   51  128 1   
   128   52   53 1   
   129   52  129 1   
   130   52  130 1   
   131   53  131 1   
   132   53  132 1   
   133   53  133 1   
@<TRIPOS>SUBSTRUCTURE
     1 3TF         1 TEMP              0 ****  ****    0 ROOT
