@<TRIPOS>MOLECULE
molecule
  133   133     1     0     0
SMALL
bcc


@<TRIPOS>ATOM
      1 C1           0.0000     0.0000     0.0000 c3         1 3TF       0.313900
      2 O1          -0.4760    -1.1940     0.6250 os         1 3TF      -0.403600
      3 C2           1.5310     0.0000     0.0000 c3         1 3TF       0.138100
      4 O2           2.0080    -1.1670    -0.6720 oh         1 3TF      -0.585800
      5 C3           2.0350     0.0000     1.4460 c3         1 3TF       0.124100
      6 O3           3.4610     0.0750     1.4550 oh         1 3TF      -0.608800
      7 C4           1.4540     1.2150     2.1780 c3         1 3TF       0.096100
      8 O4           1.8590     1.1860     3.5480 oh         1 3TF      -0.602800
      9 C5          -0.0740     1.1670     2.0940 c3         1 3TF       0.143100
     10 O5          -0.4740     1.1390     0.7230 os         1 3TF      -0.425600
     11 C6          -0.6610     2.4080     2.7710 c3         1 3TF       0.149400
     12 O6          -2.0850     2.3080     2.7960 oh         1 3TF      -0.600800
     13 C7          -1.8810    -1.4050     0.4800 c3         1 3TF       0.117400
     14 O7          -0.0210    -3.5280     0.7820 os         1 3TF      -0.389900
     15 C8          -2.2770    -2.7040     1.1840 c3         1 3TF       0.152100
     16 O8          -2.0550    -2.5690     2.6130 os         1 3TF      -0.408900
     17 C9          -1.4290    -3.8570     0.6430 c3         1 3TF       0.151400
     18 O9          -4.1210    -1.8110     2.8130 o          1 3TF      -0.556000
     19 C10          0.8640    -4.4410     0.3510 c          1 3TF       0.634100
     20 O10          0.4750    -5.4800    -0.1270 o          1 3TF      -0.569000
     21 C11          2.3410    -4.1700     0.4640 c3         1 3TF      -0.128400
     22 C12          3.1220    -5.3610    -0.0950 c3         1 3TF      -0.072400
     23 C13          4.6230    -5.0860     0.0190 c3         1 3TF      -0.083400
     24 C14          5.4040    -6.2770    -0.5400 c3         1 3TF      -0.080400
     25 C15          6.9040    -6.0010    -0.4260 c3         1 3TF      -0.082400
     26 C16          7.6850    -7.1930    -0.9850 c3         1 3TF      -0.081400
     27 C17          9.1860    -6.9180    -0.8710 c3         1 3TF      -0.082400
     28 C18          9.9670    -8.1080    -1.4310 c3         1 3TF      -0.081400
     29 C19         11.4670    -7.8330    -1.3160 c3         1 3TF      -0.082400
     30 C20         12.2490    -9.0240    -1.8750 c3         1 3TF      -0.082400
     31 C21         13.7490    -8.7490    -1.7610 c3         1 3TF      -0.081400
     32 C22         14.5300    -9.9400    -2.3200 c3         1 3TF      -0.082400
     33 C23         16.0310    -9.6650    -2.2050 c3         1 3TF      -0.081400
     34 C24         16.8120   -10.8560    -2.7640 c3         1 3TF      -0.084400
     35 C25         18.3130   -10.5810    -2.6510 c3         1 3TF      -0.092100
     36 C26         -3.0750    -2.0990     3.3470 c          1 3TF       0.630100
     37 C27         -2.9180    -1.9310     4.8360 c3         1 3TF      -0.124400
     38 C28         -4.2180    -1.3840     5.4280 c3         1 3TF      -0.072400
     39 C29         -4.0590    -1.2140     6.9400 c3         1 3TF      -0.083400
     40 C30         -5.3590    -0.6670     7.5320 c3         1 3TF      -0.079400
     41 C31         -5.1990    -0.4980     9.0450 c3         1 3TF      -0.082400
     42 C32         -6.5000     0.0500     9.6370 c3         1 3TF      -0.080400
     43 C33         -6.3390     0.2190    11.1480 c3         1 3TF      -0.087400
     44 C34         -7.6400     0.7670    11.7410 c3         1 3TF      -0.034400
     45 C35         -7.4800     0.9360    13.2520 c3         1 3TF      -0.147200
     46 C36         -8.7610     1.4750    13.8360 c2         1 3TF      -0.339200
     47 C37         -9.3280     0.8640    14.8460 c2         1 3TF      -0.342200
     48 C38         -8.6180    -0.2730    15.5350 c3         1 3TF      -0.146200
     49 C39         -8.5420     0.0070    17.0370 c3         1 3TF      -0.034400
     50 C40         -7.8210    -1.1470    17.7350 c3         1 3TF      -0.087400
     51 C41         -7.7460    -0.8660    19.2380 c3         1 3TF      -0.080400
     52 C42         -7.0240    -2.0210    19.9370 c3         1 3TF      -0.084400
     53 C43         -6.9480    -1.7400    21.4390 c3         1 3TF      -0.092100
     54 H1          -0.3590     0.0470    -1.0210 h2         1 3TF       0.077700
     55 H2           1.8910     0.8870    -0.5060 h1         1 3TF       0.058700
     56 HO2          2.3630    -0.9240    -1.5110 ho         1 3TF       0.404000
     57 H3           1.7120    -0.9080     1.9410 h1         1 3TF       0.083700
     58 HO3          3.7990    -0.4490     2.1620 ho         1 3TF       0.413000
     59 H4           1.8120     2.1230     1.7090 h1         1 3TF       0.049700
     60 HO4          2.5290     1.8330     3.6910 ho         1 3TF       0.410000
     61 H5          -0.4340     0.2750     2.5920 h1         1 3TF       0.082700
     62 H6          -0.3710     3.2930     2.2170 h1         1 3TF       0.033200
     63 H6A         -0.2860     2.4780     3.7850 h1         1 3TF       0.033200
     64 HO6         -2.4510     3.1100     3.1310 ho         1 3TF       0.403000
     65 H7          -2.4190    -0.5760     0.9240 h1         1 3TF       0.048700
     66 H7A         -2.1300    -1.4740    -0.5720 h1         1 3TF       0.048700
     67 H8          -3.3250    -2.9090     1.0000 h1         1 3TF       0.091700
     68 H9          -1.6470    -4.7590     1.2010 h1         1 3TF       0.059200
     69 H9A         -1.6610    -4.0150    -0.4040 h1         1 3TF       0.059200
     70 H11          2.6030    -4.0220     1.5050 hc         1 3TF       0.079700
     71 H11A         2.5880    -3.2780    -0.1000 hc         1 3TF       0.079700
     72 H12          2.8740    -6.2520     0.4690 hc         1 3TF       0.056200
     73 H12A         2.8600    -5.5080    -1.1360 hc         1 3TF       0.056200
     74 H13          4.8850    -4.9390     1.0600 hc         1 3TF       0.040200
     75 H13A         4.8710    -4.1950    -0.5450 hc         1 3TF       0.040200
     76 H14          5.1420    -6.4240    -1.5810 hc         1 3TF       0.043700
     77 H14A         5.1570    -7.1680     0.0240 hc         1 3TF       0.043700
     78 H15          7.1520    -5.1100    -0.9900 hc         1 3TF       0.040700
     79 H15A         7.1660    -5.8540     0.6150 hc         1 3TF       0.040700
     80 H16          7.4230    -7.3400    -2.0260 hc         1 3TF       0.041700
     81 H16A         7.4380    -8.0840    -0.4210 hc         1 3TF       0.041700
     82 H17          9.4480    -6.7710     0.1700 hc         1 3TF       0.040700
     83 H17A         9.4340    -6.0260    -1.4340 hc         1 3TF       0.040700
     84 H18          9.7190    -9.0000    -0.8670 hc         1 3TF       0.041700
     85 H18A         9.7050    -8.2550    -2.4720 hc         1 3TF       0.041700
     86 H19         11.7290    -7.6860    -0.2750 hc         1 3TF       0.040700
     87 H19A        11.7150    -6.9420    -1.8800 hc         1 3TF       0.040700
     88 H20         11.9860    -9.1720    -2.9150 hc         1 3TF       0.040700
     89 H20A        12.0010    -9.9150    -1.3100 hc         1 3TF       0.040700
     90 H21         13.9970    -7.8580    -2.3260 hc         1 3TF       0.040700
     91 H21A        14.0120    -8.6010    -0.7210 hc         1 3TF       0.040700
     92 H22         14.2680   -10.0870    -3.3600 hc         1 3TF       0.040700
     93 H22A        14.2820   -10.8310    -1.7550 hc         1 3TF       0.040700
     94 H23         16.2930    -9.5180    -1.1650 hc         1 3TF       0.040700
     95 H23A        16.2790    -8.7740    -2.7690 hc         1 3TF       0.040700
     96 H24         16.5500   -11.0040    -3.8050 hc         1 3TF       0.039700
     97 H24A        16.5650   -11.7470    -2.2000 hc         1 3TF       0.039700
     98 H25         18.5750   -10.4330    -1.6100 hc         1 3TF       0.032367
     99 H25A        18.8650   -11.4240    -3.0470 hc         1 3TF       0.032367
    100 H25B        18.5600    -9.6890    -3.2150 hc         1 3TF       0.032367
    101 H27         -2.6920    -2.8910     5.2860 hc         1 3TF       0.073200
    102 H27A        -2.1100    -1.2390     5.0380 hc         1 3TF       0.073200
    103 H28         -4.4440    -0.4250     4.9790 hc         1 3TF       0.059700
    104 H28A        -5.0270    -2.0770     5.2260 hc         1 3TF       0.059700
    105 H29         -3.2510    -0.5220     7.1420 hc         1 3TF       0.040700
    106 H29A        -3.8330    -2.1740     7.3900 hc         1 3TF       0.040700
    107 H30         -5.5850     0.2920     7.0830 hc         1 3TF       0.045200
    108 H30A        -6.1670    -1.3590     7.3300 hc         1 3TF       0.045200
    109 H31         -4.9740    -1.4570     9.4940 hc         1 3TF       0.040700
    110 H31A        -4.3910     0.1950     9.2470 hc         1 3TF       0.040700
    111 H32         -7.3080    -0.6420     9.4340 hc         1 3TF       0.045700
    112 H32A        -6.7250     1.0100     9.1870 hc         1 3TF       0.045700
    113 H33         -6.1130    -0.7410    11.5970 hc         1 3TF       0.040200
    114 H33A        -5.5310     0.9110    11.3500 hc         1 3TF       0.040200
    115 H34         -8.4480     0.0740    11.5390 hc         1 3TF       0.058700
    116 H34A        -7.8660     1.7260    11.2920 hc         1 3TF       0.058700
    117 H35         -7.2540    -0.0230    13.7020 hc         1 3TF       0.033700
    118 H35A        -6.6720     1.6290    13.4540 hc         1 3TF       0.033700
    119 H36         -7.8010     1.7240    14.2730 ha         1 3TF       0.330000
    120 H37         -9.3840    -0.1460    14.4570 ha         1 3TF       0.330000
    121 H38         -7.6160    -0.3680    15.1350 hc         1 3TF       0.034200
    122 H38A        -9.1630    -1.1940    15.3670 hc         1 3TF       0.034200
    123 H39         -7.9970     0.9280    17.2060 hc         1 3TF       0.058200
    124 H39A        -9.5440     0.1020    17.4380 hc         1 3TF       0.058200
    125 H40         -6.8190    -1.2410    17.3350 hc         1 3TF       0.040700
    126 H40A        -8.3660    -2.0680    17.5670 hc         1 3TF       0.040700
    127 H41         -7.2010     0.0550    19.4060 hc         1 3TF       0.044700
    128 H41A        -8.7480    -0.7710    19.6380 hc         1 3TF       0.044700
    129 H42         -6.0220    -2.1150    19.5360 hc         1 3TF       0.039700
    130 H42A        -7.5690    -2.9420    19.7680 hc         1 3TF       0.039700
    131 H43         -6.4380    -2.5580    21.9330 hc         1 3TF       0.034033
    132 H43A        -7.9500    -1.6450    21.8390 hc         1 3TF       0.034033
    133 H43B        -6.4030    -0.8200    21.6070 hc         1 3TF       0.034033
@<TRIPOS>BOND
     1     2     1 1   
     2    10     1 1   
     3     1     3 1   
     4     1    54 1   
     5    13     2 1   
     6     3     5 1   
     7     3     4 1   
     8     3    55 1   
     9     4    56 1   
    10     7     5 1   
    11     5     6 1   
    12     5    57 1   
    13     6    58 1   
    14     9     7 1   
    15     7     8 1   
    16     7    59 1   
    17     8    60 1   
    18    11     9 1   
    19    10     9 1   
    20     9    61 1   
    21    12    11 1   
    22    11    62 1   
    23    11    63 1   
    24    12    64 1   
    25    15    13 1   
    26    13    65 1   
    27    13    66 1   
    28    19    14 1   
    29    14    17 1   
    30    16    15 1   
    31    17    15 1   
    32    15    67 1   
    33    36    16 1   
    34    17    68 1   
    35    17    69 1   
    36    36    18 2   
    37    21    19 1   
    38    19    20 2   
    39    22    21 1   
    40    21    70 1   
    41    21    71 1   
    42    23    22 1   
    43    22    72 1   
    44    22    73 1   
    45    24    23 1   
    46    23    74 1   
    47    23    75 1   
    48    24    25 1   
    49    24    76 1   
    50    24    77 1   
    51    26    25 1   
    52    25    78 1   
    53    25    79 1   
    54    26    27 1   
    55    26    80 1   
    56    26    81 1   
    57    27    28 1   
    58    27    82 1   
    59    27    83 1   
    60    29    28 1   
    61    28    84 1   
    62    28    85 1   
    63    29    30 1   
    64    29    86 1   
    65    29    87 1   
    66    30    31 1   
    67    30    88 1   
    68    30    89 1   
    69    31    32 1   
    70    31    90 1   
    71    31    91 1   
    72    32    33 1   
    73    32    92 1   
    74    32    93 1   
    75    33    34 1   
    76    33    94 1   
    77    33    95 1   
    78    34    35 1   
    79    34    96 1   
    80    34    97 1   
    81    35    98 1   
    82    35    99 1   
    83    35   100 1   
    84    37    36 1   
    85    38    37 1   
    86    37   101 1   
    87    37   102 1   
    88    39    38 1   
    89    38   103 1   
    90    38   104 1   
    91    40    39 1   
    92    39   105 1   
    93    39   106 1   
    94    41    40 1   
    95    40   107 1   
    96    40   108 1   
    97    42    41 1   
    98    41   109 1   
    99    41   110 1   
   100    43    42 1   
   101    42   111 1   
   102    42   112 1   
   103    44    43 1   
   104    43   113 1   
   105    43   114 1   
   106    45    44 1   
   107    44   115 1   
   108    44   116 1   
   109    46    45 1   
   110    45   117 1   
   111    45   118 1   
   112    47    46 2   
   113    46   119 1   
   114    47    48 1   
   115    47   120 1   
   116    49    48 1   
   117    48   121 1   
   118    48   122 1   
   119    49    50 1   
   120    49   123 1   
   121    49   124 1   
   122    51    50 1   
   123    50   125 1   
   124    50   126 1   
   125    51    52 1   
   126    51   127 1   
   127    51   128 1   
   128    52    53 1   
   129    52   129 1   
   130    52   130 1   
   131    53   131 1   
   132    53   132 1   
   133    53   133 1   
@<TRIPOS>SUBSTRUCTURE
     1 3TF         1 TEMP              0 ****  ****    0 ROOT
