@<TRIPOS>MOLECULE
3TG
   40    42     1     0     0
SMALL
bcc


@<TRIPOS>ATOM
      1 C          -0.0130    0.4330   -0.0290 c         1 3TG      0.562100
      2 N           0.4330   -0.1950    2.3640 na        1 3TG     -0.213900
      3 O           0.7380    1.4100    0.0020 o         1 3TG     -0.513100
      4 CA         -0.3320   -0.4300    1.1820 c3        1 3TG     -0.057700
      5 CAB         2.4740   -3.6710   -2.4920 ca        1 3TG     -0.126500
      6 CAC        -2.0020    0.4830   -6.1710 ca        1 3TG     -0.126500
      7 CAD         1.1030   -3.7200   -2.7410 ca        1 3TG     -0.127250
      8 CAE         3.0900   -2.4440   -2.2480 ca        1 3TG     -0.127250
      9 CAF        -2.5940   -0.2090   -5.1160 ca        1 3TG     -0.127250
     10 CAG        -0.7140    0.9980   -6.0240 ca        1 3TG     -0.127250
     11 CAH         1.4500   -0.5060    4.3380 cc        1 3TG      0.297200
     12 CAI         0.3500   -2.5480   -2.7450 ca        1 3TG     -0.123250
     13 CAJ         2.3390   -1.2690   -2.2520 ca        1 3TG     -0.123250
     14 CAK        -1.9020   -0.3880   -3.9180 ca        1 3TG     -0.123250
     15 CAL        -0.0210    0.8230   -4.8280 ca        1 3TG     -0.123250
     16 CAM         0.7640   -1.1750    3.3120 cd        1 3TG     -0.265600
     17 CAN         0.9310    1.0240    2.8560 cd        1 3TG      0.413400
     18 CAO        -0.7540    0.0150   -1.2700 c3        1 3TG     -0.175400
     19 NAQ         1.5480    0.8550    4.0430 nc        1 3TG     -0.673000
     20 CAS         0.9610   -1.3130   -2.4980 ca        1 3TG     -0.082800
     21 CAT        -0.6100    0.1270   -3.7640 ca        1 3TG     -0.082800
     22 CAU         0.1640   -0.0420   -2.4900 c3        1 3TG      0.031900
     23 HA         -1.4300   -0.2700    1.4100 h1        1 3TG      0.078200
     24 HAA        -0.1940   -1.5100    0.8800 h1        1 3TG      0.078200
     25 HAC        -2.5480    0.6230   -7.1150 ha        1 3TG      0.134000
     26 HAD         0.6140   -4.6850   -2.9410 ha        1 3TG      0.133500
     27 HAE         4.1720   -2.3990   -2.0530 ha        1 3TG      0.133500
     28 HAF        -3.6100   -0.6170   -5.2260 ha        1 3TG      0.133500
     29 HAG        -0.2420    1.5450   -6.8540 ha        1 3TG      0.133500
     30 HAH         1.8710   -0.9210    5.2520 h4        1 3TG      0.041100
     31 HAI        -0.7300   -2.5870   -2.9570 ha        1 3TG      0.134000
     32 HAJ         2.8330   -0.3040   -2.0570 ha        1 3TG      0.134000
     33 HAK        -2.3810   -0.9360   -3.0940 ha        1 3TG      0.134000
     34 HAL         0.9940    1.2320   -4.7190 ha        1 3TG      0.134000
     35 HAM         0.5000   -2.2210    3.1840 h4        1 3TG      0.173000
     36 HAN         0.8420    1.9620    2.2950 h5        1 3TG      0.078100
     37 HAO        -1.2490   -0.9790   -1.1180 hc        1 3TG      0.073700
     38 HAOA       -1.5600    0.7780   -1.4520 hc        1 3TG      0.073700
     39 HAU         0.8820    0.8310   -2.4080 hc        1 3TG      0.083700
     40 HAB         3.0680   -4.5960   -2.4900 ha        1 3TG      0.134000
@<TRIPOS>BOND
     1    1    3 2   
     2    1    4 1   
     3    1   18 1   
     4    2    4 1   
     5    2   16 1   
     6    2   17 1   
     7    4   23 1   
     8    4   24 1   
     9    5    7 ar  
    10    5    8 ar  
    11    5   40 1   
    12    6    9 ar  
    13    6   10 ar  
    14    6   25 1   
    15    7   12 ar  
    16    7   26 1   
    17    8   13 ar  
    18    8   27 1   
    19    9   14 ar  
    20    9   28 1   
    21   10   15 ar  
    22   10   29 1   
    23   11   16 2   
    24   11   19 1   
    25   11   30 1   
    26   12   20 ar  
    27   12   31 1   
    28   13   20 ar  
    29   13   32 1   
    30   14   21 ar  
    31   14   33 1   
    32   15   21 ar  
    33   15   34 1   
    34   16   35 1   
    35   17   19 2   
    36   17   36 1   
    37   18   22 1   
    38   18   37 1   
    39   18   38 1   
    40   20   22 1   
    41   21   22 1   
    42   22   39 1   
@<TRIPOS>SUBSTRUCTURE
     1 3TG         1 TEMP              0 ****  ****    0 ROOT
