@<TRIPOS>MOLECULE
molecule
   40    42     1     0     0
SMALL
bcc


@<TRIPOS>ATOM
      1 C            0.0000     0.0000     0.0000 c          1 3TG       0.532100
      2 N            0.1990    -0.0070     2.4190 na         1 3TG      -0.180900
      3 O            1.2070     0.0000     0.0000 o          1 3TG      -0.479100
      4 CA          -0.7530     0.0000     1.3050 c3         1 3TG      -0.055700
      5 CAB          2.4430    -3.6540    -2.4560 ca         1 3TG      -0.127000
      6 CAC         -1.8770     0.3690    -6.1610 ca         1 3TG      -0.127000
      7 CAD          1.0620    -3.6780    -2.4140 ca         1 3TG      -0.125000
      8 CAE          3.1120    -2.4440    -2.5000 ca         1 3TG      -0.125000
      9 CAF         -2.2300    -0.6130    -5.2550 ca         1 3TG      -0.125000
     10 CAG         -0.8350     1.2320    -5.8730 ca         1 3TG      -0.125000
     11 CAH          1.5510    -0.6680     3.9970 cc         1 3TG       0.314200
     12 CAI          0.3490    -2.4940    -2.4180 ca         1 3TG      -0.118750
     13 CAJ          2.3990    -1.2610    -2.5100 ca         1 3TG      -0.118750
     14 CAK         -1.5460    -0.7310    -4.0590 ca         1 3TG      -0.118750
     15 CAL         -0.1490     1.1120    -4.6800 ca         1 3TG      -0.118750
     16 CAM          0.7260    -1.1130     3.0290 cd         1 3TG      -0.269600
     17 CAN          0.7240     1.0750     3.0300 cd         1 3TG       0.401400
     18 CAO         -0.7540     0.0070    -1.3050 c3         1 3TG      -0.171400
     19 NAQ          1.5310     0.6730     3.9750 nc         1 3TG      -0.694000
     20 CAS          1.0170    -1.2850    -2.4630 ca         1 3TG      -0.076800
     21 CAT         -0.5090     0.1370    -3.7690 ca         1 3TG      -0.076800
     22 CAU          0.2400     0.0060    -2.4680 c3         1 3TG       0.035900
     23 HA          -1.3720     0.8870     1.3650 h1         1 3TG       0.081700
     24 HAA         -1.3800    -0.8820     1.3610 h1         1 3TG       0.081700
     25 HAC         -2.4140     0.4620    -7.0970 ha         1 3TG       0.129500
     26 HAD          0.5380    -4.6260    -2.3790 ha         1 3TG       0.130000
     27 HAE          4.1940    -2.4250    -2.5350 ha         1 3TG       0.130000
     28 HAF         -3.0440    -1.2910    -5.4820 ha         1 3TG       0.130000
     29 HAG         -0.5550     1.9990    -6.5840 ha         1 3TG       0.130000
     30 HAH          2.1300    -1.2850     4.6730 h4         1 3TG       0.041100
     31 HAI         -0.7340    -2.5140    -2.3830 ha         1 3TG       0.129250
     32 HAJ          2.9230    -0.3130    -2.5450 ha         1 3TG       0.129250
     33 HAK         -1.8260    -1.4980    -3.3470 ha         1 3TG       0.129250
     34 HAL          0.6660     1.7900    -4.4530 ha         1 3TG       0.129250
     35 HAM          0.5170    -2.1470     2.7840 h4         1 3TG       0.172000
     36 HAN          0.5100     2.1070     2.7800 h5         1 3TG       0.061100
     37 HAO         -1.3800    -0.8740    -1.3640 hc         1 3TG       0.070200
     38 HAOA        -1.3730     0.8950    -1.3590 hc         1 3TG       0.070200
     39 HAU          0.9230     0.8400    -2.3600 hc         1 3TG       0.075700
     40 HAB          3.0020    -4.5820    -2.4510 ha         1 3TG       0.129500
@<TRIPOS>BOND
     1     3     1 2
     2     1    18 1
     3     1     4 1
     4    16     2 1
     5     2     4 1
     6     2    17 1
     7     4    23 1
     8     4    24 1
     9     7     5 ar
    10     5     8 ar
    11     5    40 1
    12    10     6 ar
    13     6     9 ar
    14     6    25 1
    15     7    12 ar
    16     7    26 1
    17     8    13 ar
    18     8    27 1
    19    14     9 ar
    20     9    28 1
    21    15    10 ar
    22    10    29 1
    23    16    11 2
    24    11    19 1
    25    11    30 1
    26    12    20 ar
    27    12    31 1
    28    20    13 ar
    29    13    32 1
    30    21    14 ar
    31    14    33 1
    32    15    21 ar
    33    15    34 1
    34    16    35 1
    35    19    17 2
    36    17    36 1
    37    22    18 1
    38    18    37 1
    39    18    38 1
    40    20    22 1
    41    22    21 1
    42    22    39 1
@<TRIPOS>SUBSTRUCTURE
     1 3TG         1 TEMP              0 ****  ****    0 ROOT
