@<TRIPOS>MOLECULE
3TH
   35    38     1     0     0
SMALL
bcc


@<TRIPOS>ATOM
      1 Cl           0.0000     0.0000     0.0000 cl         1 3TH       0.083600
      2 C2           1.7360     0.0000     0.0000 cc         1 3TH       0.047300
      3 C3           2.5680     0.0000     1.0520 cd         1 3TH      -0.047000
      4 C4           4.0070    -0.0050     0.8160 cd         1 3TH      -0.182000
      5 C5           5.2270    -0.0100     1.5530 cd         1 3TH      -0.008000
      6 C6           6.2600    -0.0050     0.6670 cc         1 3TH      -0.403900
      7 N7           5.7400     0.0030    -0.6170 na         1 3TH       0.477900
      8 C9           4.3880     0.0030    -0.5290 cc         1 3TH      -0.129400
      9 S10          2.8420     0.0090    -1.3980 ss         1 3TH      -0.279800
     10 C11          7.6830    -0.0080     1.0110 c          1 3TH       0.631700
     11 O12          8.0260    -0.0160     2.1790 o          1 3TH      -0.604100
     12 N13          8.6140    -0.0030     0.0360 ns         1 3TH      -0.208900
     13 C14         10.0370    -0.0060     0.3820 c3         1 3TH      -0.039300
     14 C15         10.8390     0.6130    -0.7640 c3         1 3TH       0.029900
     15 C16         10.8660    -0.3350    -1.9350 ca         1 3TH      -0.153300
     16 C17         10.8980     0.1630    -3.2230 ca         1 3TH      -0.065000
     17 C18         10.9360    -0.7030    -4.3010 ca         1 3TH      -0.125000
     18 C19         10.9450    -2.0710    -4.0920 ca         1 3TH      -0.064000
     19 C20         10.9080    -2.5740    -2.8060 ca         1 3TH      -0.141000
     20 C21         10.8620    -1.7060    -1.7220 ca         1 3TH      -0.072400
     21 N22         10.8220    -2.2130    -0.4210 ns         1 3TH      -0.017100
     22 C23         10.4930    -1.4230     0.6130 c          1 3TH       0.576500
     23 O24         10.5630    -1.8520     1.7460 o          1 3TH      -0.623500
     24 H3           2.1760     0.0040     2.0620 ha         1 3TH       0.118000
     25 H5           5.3170    -0.0160     2.6320 ha         1 3TH       0.142000
     26 HN7          6.2720     0.0080    -1.4640 hn         1 3TH       0.107700
     27 HN13         8.3320     0.0340    -0.9240 hn         1 3TH       0.170500
     28 H14         10.1950     0.5730     1.2830 h1         1 3TH       0.086700
     29 H151        11.8560     0.7790    -0.4270 hc         1 3TH       0.037700
     30 H152        10.3560     1.5320    -1.0700 hc         1 3TH       0.037700
     31 H17         10.8900     1.2330    -3.3900 ha         1 3TH       0.108000
     32 H18         10.9650    -0.3100    -5.3100 ha         1 3TH       0.109000
     33 H19         10.9750    -2.7470    -4.9370 ha         1 3TH       0.106000
     34 H20         10.9160    -3.6450    -2.6430 ha         1 3TH       0.114000
     35 HN22        11.0430    -3.1750    -0.2570 hn         1 3TH       0.182500
@<TRIPOS>BOND
     1     1     2 1   
     2     2     3 2   
     3     2     9 1   
     4     3     4 1   
     5     3    24 1   
     6     4     5 1   
     7     4     8 2   
     8     5     6 2   
     9     5    25 1   
    10     6     7 1   
    11     6    10 1   
    12     7     8 1   
    13     7    26 1   
    14     8     9 1   
    15    10    11 2   
    16    10    12 1   
    17    12    13 1   
    18    12    27 1   
    19    13    14 1   
    20    13    22 1   
    21    13    28 1   
    22    14    15 1   
    23    14    29 1   
    24    14    30 1   
    25    15    16 ar  
    26    15    20 ar  
    27    16    17 ar  
    28    16    31 1   
    29    17    18 ar  
    30    17    32 1   
    31    18    19 ar  
    32    18    33 1   
    33    19    20 ar  
    34    19    34 1   
    35    20    21 1   
    36    21    22 1   
    37    21    35 1   
    38    22    23 2   
@<TRIPOS>SUBSTRUCTURE
     1 3TH         1 TEMP              0 ****  ****    0 ROOT
