@<TRIPOS>MOLECULE
3TI
   33    36     1     0     0
SMALL
bcc


@<TRIPOS>ATOM
      1 N01          0.0000     0.0000     0.0000 n2         1 3TI       0.036000
      2 C02          1.3680     0.0000     0.0000 ca         1 3TI      -0.053000
      3 C03          2.0680     0.0000     1.2080 ca         1 3TI      -0.066000
      4 C04          3.4470     0.0000     1.2030 ca         1 3TI      -0.141500
      5 C05          4.1380    -0.0010    -0.0010 ca         1 3TI       0.080000
      6 C06          3.4470    -0.0000    -1.2050 ca         1 3TI      -0.141500
      7 C07          2.0680    -0.0070    -1.2090 ca         1 3TI      -0.066000
      8 C08         -0.6540     0.7980    -0.8000 c2         1 3TI      -0.382000
      9 C09         -2.1190     0.7990    -0.8000 c3         1 3TI      -0.194000
     10 C10         -2.8330    -0.0450     0.0540 c2         1 3TI       0.134000
     11 C11         -4.2280    -0.0410     0.0480 c2         1 3TI      -0.215000
     12 C12         -4.9370     0.7750    -0.7760 c2         1 3TI       0.005000
     13 C13         -4.2820     1.6520    -1.6610 ca         1 3TI      -0.091000
     14 C14         -2.8670     1.6870    -1.6900 ca         1 3TI       0.050000
     15 C15         -2.2140     2.5620    -2.5650 ca         1 3TI      -0.084000
     16 C16         -2.9490     3.3740    -3.3790 ca         1 3TI      -0.084000
     17 C17         -4.3400     3.3440    -3.3500 ca         1 3TI      -0.108000
     18 C18         -5.0070     2.4970    -2.5170 ca         1 3TI      -0.077000
     19 O19          5.4980     0.0000    -0.0010 oh         1 3TI      -0.256000
     20 O20         -2.1660    -0.8760     0.8940 oh         1 3TI      -0.205000
     21 H03          1.5290     0.0010     2.1480 ha         1 3TI       0.113500
     22 H04          3.9910     0.0000     2.1390 ha         1 3TI       0.113500
     23 H06          3.9910    -0.0040    -2.1420 ha         1 3TI       0.113500
     24 H07          1.5280    -0.0070    -2.1480 ha         1 3TI       0.113500
     25 H08         -1.2660     0.0480    -1.2860 DU         1 3TI       0.326000
     26 H11         -4.7600    -0.7040     0.7190 ha         1 3TI       0.112000
     27 H12         -6.0200     0.7490    -0.7510 ha         1 3TI       0.104000
     28 H15         -1.1320     2.5940    -2.5970 ha         1 3TI       0.142000
     29 H16         -2.4430     4.0570    -4.0510 ha         1 3TI       0.104000
     30 H17         -4.9020     3.9990    -4.0060 ha         1 3TI       0.103000
     31 H18         -6.0900     2.4850    -2.5050 ha         1 3TI       0.105000
     32 HO19         5.8130    -0.8890    -0.0000 ho         1 3TI       0.200000
     33 HO20        -2.6560    -0.9760     1.6930 ho         1 3TI       0.208000
@<TRIPOS>BOND
     1     1     2 1   
     2     1     8 1   
     3     2     3 1   
     4     2     7 1   
     5     3     4 1   
     6     3    21 1   
     7     4     5 1   
     8     4    22 1   
     9     5     6 1   
    10     5    19 1   
    11     6     7 1   
    12     6    23 1   
    13     7    24 1   
    14     8     9 1   
    15     8    25 1   
    16     9    10 1   
    17     9    14 1   
    18     9    25 1   
    19    10    11 1   
    20    10    20 1   
    21    11    12 1   
    22    11    26 1   
    23    12    13 1   
    24    12    27 1   
    25    13    14 1   
    26    13    18 1   
    27    14    15 1   
    28    15    16 1   
    29    15    28 1   
    30    16    17 1   
    31    16    29 1   
    32    17    18 1   
    33    17    30 1   
    34    18    31 1   
    35    19    32 1   
    36    20    33 1   
@<TRIPOS>SUBSTRUCTURE
     1 3TI         1 TEMP              0 ****  ****    0 ROOT
