@<TRIPOS>MOLECULE
molecule
   33    35     1     0     0
SMALL
bcc


@<TRIPOS>ATOM
      1 N01          0.0000     0.0000     0.0000 ne         1 3TI      -0.564100
      2 C02          1.3680     0.0000     0.0000 ca         1 3TI       0.128400
      3 C03          2.0680     0.0000     1.2080 ca         1 3TI      -0.126500
      4 C04          3.4470     0.0000     1.2030 ca         1 3TI      -0.143000
      5 C05          4.1380    -0.0010    -0.0010 ca         1 3TI       0.092100
      6 C06          3.4470    -0.0000    -1.2050 ca         1 3TI      -0.143000
      7 C07          2.0680    -0.0070    -1.2090 ca         1 3TI      -0.126500
      8 C08         -0.6540     0.7980    -0.8000 cf         1 3TI       0.499800
      9 C09         -2.1190     0.7990    -0.8000 ca         1 3TI      -0.184900
     10 C10         -2.8330    -0.0450     0.0540 ca         1 3TI       0.175100
     11 C11         -4.2280    -0.0410     0.0480 ca         1 3TI      -0.201000
     12 C12         -4.9370     0.7750    -0.7760 ca         1 3TI      -0.067000
     13 C13         -4.2820     1.6520    -1.6610 ca         1 3TI      -0.065000
     14 C14         -2.8670     1.6870    -1.6900 ca         1 3TI       0.012000
     15 C15         -2.2140     2.5620    -2.5650 ca         1 3TI      -0.131000
     16 C16         -2.9490     3.3740    -3.3790 ca         1 3TI      -0.108000
     17 C17         -4.3400     3.3440    -3.3500 ca         1 3TI      -0.137000
     18 C18         -5.0070     2.4970    -2.5170 ca         1 3TI      -0.101000
     19 O19          5.4980     0.0000    -0.0010 oh         1 3TI      -0.523100
     20 O20         -2.1660    -0.8760     0.8940 oh         1 3TI      -0.465100
     21 H03          1.5290     0.0010     2.1480 ha         1 3TI       0.141500
     22 H04          3.9910     0.0000     2.1390 ha         1 3TI       0.140500
     23 H06          3.9910    -0.0040    -2.1420 ha         1 3TI       0.140500
     24 H07          1.5280    -0.0070    -2.1480 ha         1 3TI       0.141500
     25 H08         -0.1130     1.4610    -1.4640 h4         1 3TI      -0.019200
     26 H11         -4.7600    -0.7040     0.7190 ha         1 3TI       0.135000
     27 H12         -6.0200     0.7490    -0.7510 ha         1 3TI       0.135000
     28 H15         -1.1320     2.5940    -2.5970 ha         1 3TI       0.135000
     29 H16         -2.4430     4.0570    -4.0510 ha         1 3TI       0.131000
     30 H17         -4.9020     3.9990    -4.0060 ha         1 3TI       0.131000
     31 H18         -6.0900     2.4850    -2.5050 ha         1 3TI       0.134000
     32 HO19         5.8130    -0.8890    -0.0000 ho         1 3TI       0.417000
     33 HO20        -2.5860    -1.7200     0.9010 ho         1 3TI       0.417000
@<TRIPOS>BOND
     1     1     8 2   
     2     1     2 1   
     3     2     3 ar  
     4     2     7 ar  
     5     3     4 ar  
     6     3    21 1   
     7     4     5 ar  
     8     4    22 1   
     9     6     5 ar  
    10     5    19 1   
    11     7     6 ar  
    12     6    23 1   
    13     7    24 1   
    14     9     8 1   
    15     8    25 1   
    16    10     9 ar  
    17     9    14 ar  
    18    11    10 ar  
    19    20    10 1   
    20    11    12 ar  
    21    11    26 1   
    22    12    13 ar  
    23    12    27 1   
    24    13    18 ar  
    25    13    14 ar  
    26    14    15 ar  
    27    15    16 ar  
    28    15    28 1   
    29    17    16 ar  
    30    16    29 1   
    31    18    17 ar  
    32    17    30 1   
    33    18    31 1   
    34    19    32 1   
    35    20    33 1   
@<TRIPOS>SUBSTRUCTURE
     1 3TI         1 TEMP              0 ****  ****    0 ROOT
