@<TRIPOS>MOLECULE
molecule
   26    27     1     0     0
SMALL
bcc


@<TRIPOS>ATOM
      1 CAA          0.0000     0.0000     0.0000 c3         1 3TJ      -0.120100
      2 OAB          3.0110     1.4350     5.2260 o          1 3TJ      -0.624800
      3 OAC          2.8360     3.3930     3.6740 o          1 3TJ      -0.624800
      4 CAE          5.4430     0.1570     0.8150 ca         1 3TJ      -0.089000
      5 CAF          4.0780     0.0000     0.7190 ca         1 3TJ      -0.177000
      6 CAG          5.1620     1.3870     2.8490 ca         1 3TJ      -0.034000
      7 CAH          1.5310     0.0000     0.0000 c3         1 3TJ       0.186800
      8 CAI          0.9670     1.3150     2.1050 c3         1 3TJ       0.471000
      9 NAJ          1.2170     1.4550     3.5550 n7         1 3TJ      -0.905100
     10 CAK          5.9930     0.8460     1.8840 ca         1 3TJ       0.084900
     11 CAL          3.2300     0.5370     1.6920 ca         1 3TJ       0.189600
     12 CAM          3.7930     1.2440     2.7440 ca         1 3TJ      -0.309500
     13 NAN          1.8660     0.3080     1.5560 nh         1 3TJ      -0.643000
     14 SAO          2.7450     2.0020     3.9500 sy         1 3TJ       1.415200
     15 HAA         -0.3610    -0.4790    -0.9020 hc         1 3TJ       0.048700
     16 HAAA        -0.3610    -0.5420     0.8660 hc         1 3TJ       0.048700
     17 HAE          6.0890    -0.2590     0.0520 ha         1 3TJ       0.147000
     18 HAF          3.6570    -0.5400    -0.1210 ha         1 3TJ       0.143000
     19 HAG          5.5870     1.9240     3.6890 ha         1 3TJ       0.155000
     20 HAH          1.8920    -0.9670    -0.3290 h1         1 3TJ       0.063200
     21 HAI         -0.0590     1.0080     1.9440 h2         1 3TJ       0.064200
     22 HAIA         1.1470     2.2650     1.6160 h2         1 3TJ       0.064200
     23 HNAJ         0.5250     1.2400     4.2460 hn         1 3TJ       0.471800
     24 H10         -0.3610     1.0210     0.0360 hc         1 3TJ       0.048700
     25 H11          1.8920     0.7680    -0.6730 h1         1 3TJ       0.063200
     26 FAD          7.3340     0.9870     1.9820 f          1 3TJ      -0.137900
@<TRIPOS>BOND
     1     1     7 1
     2     1    15 1
     3     1    16 1
     4     2    14 2
     5    26    10 1
     6     4     5 ar
     7     4    10 ar
     8     4    17 1
     9     5    11 ar
    10     5    18 1
    11     6    12 ar
    12     6    19 1
    13     7    13 1
    14     7    20 1
    15     8     9 1
    16     8    21 1
    17     8    22 1
    18     9    23 1
    19    10     6 ar
    20    11    13 1
    21    11    12 ar
    22    12    14 1
    23    13     8 1
    24    14     3 2
    25    14     9 1
    26     1    24 1
    27     7    25 1
@<TRIPOS>SUBSTRUCTURE
     1 3TJ         1 TEMP              0 ****  ****    0 ROOT
