@<TRIPOS>MOLECULE
molecule
   43    45     1     0     0
SMALL
bcc


@<TRIPOS>ATOM
      1 C            0.0000     0.0000     0.0000 c          1 3TK       0.659100
      2 N            1.3480     0.0000     0.0000 ns         1 3TK      -0.530400
      3 O           -0.6070     0.0000     1.0500 o          1 3TK      -0.512100
      4 S            3.7470     0.0020     1.3510 ss         1 3TK      -0.235300
      5 C1           2.0430     0.0010     1.2030 cc         1 3TK       0.570300
      6 N1           1.4940     0.0010     2.3780 nd         1 3TK      -0.680000
      7 S1          -2.5330     0.0110    -0.9740 ss         1 3TK      -0.145400
      8 C2           2.3080     0.0030     3.4170 cd         1 3TK       0.399200
      9 N2          -4.4620     0.0220    -2.8240 nb         1 3TK      -0.750000
     10 C3           3.6060     0.0030     3.1060 cc         1 3TK      -0.152700
     11 N3          -2.2940     0.0170    -3.6360 nb         1 3TK      -0.750000
     12 C4           4.7500     0.0030     4.0860 c3         1 3TK       0.053200
     13 C5           5.1320    -1.4190     4.4120 ca         1 3TK      -0.085300
     14 C6           4.5250    -2.0720     5.4680 ca         1 3TK      -0.119500
     15 C7           4.8750    -3.3760     5.7670 ca         1 3TK      -0.124500
     16 C8           5.8330    -4.0250     5.0110 ca         1 3TK      -0.127000
     17 C9           6.4400    -3.3710     3.9550 ca         1 3TK      -0.124500
     18 C10          6.0860    -2.0700     3.6530 ca         1 3TK      -0.119500
     19 C11         -0.7540     0.0060    -1.3050 c3         1 3TK      -0.111300
     20 C12         -3.1510     0.0170    -2.6240 ca         1 3TK       0.774300
     21 C13         -4.9580     0.0280    -4.0500 ca         1 3TK       0.481100
     22 C14         -6.4490     0.0340    -4.2690 c3         1 3TK      -0.144900
     23 C15         -4.0900     0.0270    -5.1310 ca         1 3TK      -0.394600
     24 C16         -2.7260     0.0210    -4.8870 ca         1 3TK       0.481100
     25 C17         -1.7460     0.0200    -6.0310 c3         1 3TK      -0.144900
     26 HN           1.8480    -0.0180    -0.8670 hn         1 3TK       0.336500
     27 H2           1.9510     0.0030     4.4400 h4         1 3TK       0.049100
     28 H4           5.6000     0.5130     3.6490 hc         1 3TK       0.061200
     29 H4A          4.4500     0.5130     4.9930 hc         1 3TK       0.061200
     30 H6           3.7740    -1.5640     6.0610 ha         1 3TK       0.129500
     31 H7           4.4000    -3.8880     6.5950 ha         1 3TK       0.130000
     32 H8           6.1090    -5.0450     5.2470 ha         1 3TK       0.129000
     33 H9           7.1890    -3.8800     3.3620 ha         1 3TK       0.130000
     34 H10          6.5610    -1.5570     2.8250 ha         1 3TK       0.129500
     35 H11         -0.4950    -0.8780    -1.8760 h1         1 3TK       0.093700
     36 H11A        -0.4890     0.8910    -1.8710 h1         1 3TK       0.093700
     37 H14         -6.7280     0.9190    -4.8290 hc         1 3TK       0.057367
     38 H14A        -6.7360    -0.8500    -4.8250 hc         1 3TK       0.057367
     39 H14B        -6.9550     0.0380    -3.3110 hc         1 3TK       0.057367
     40 H15         -4.4710     0.0310    -6.1450 ha         1 3TK       0.146000
     41 H17         -1.8460     0.9410    -6.5930 hc         1 3TK       0.057367
     42 H17A        -1.9490    -0.8230    -6.6800 hc         1 3TK       0.057367
     43 H17B        -0.7370    -0.0570    -5.6430 hc         1 3TK       0.057367
@<TRIPOS>BOND
     1     2     1 1   
     2     1     3 2   
     3     1    19 1   
     4     5     2 1   
     5     2    26 1   
     6    10     4 1   
     7     5     4 1   
     8     6     5 2   
     9     8     6 1   
    10    20     7 1   
    11    19     7 1   
    12     8    10 2   
    13     8    27 1   
    14    21     9 ar  
    15     9    20 ar  
    16    12    10 1   
    17    24    11 ar  
    18    20    11 ar  
    19    13    12 1   
    20    12    28 1   
    21    12    29 1   
    22    14    13 ar  
    23    13    18 ar  
    24    15    14 ar  
    25    14    30 1   
    26    15    16 ar  
    27    15    31 1   
    28    16    17 ar  
    29    16    32 1   
    30    17    18 ar  
    31    17    33 1   
    32    18    34 1   
    33    19    35 1   
    34    19    36 1   
    35    22    21 1   
    36    21    23 ar  
    37    22    37 1   
    38    22    38 1   
    39    22    39 1   
    40    23    24 ar  
    41    23    40 1   
    42    24    25 1   
    43    25    41 1   
    44    25    42 1   
    45    25    43 1   
@<TRIPOS>SUBSTRUCTURE
     1 3TK         1 TEMP              0 ****  ****    0 ROOT
