@<TRIPOS>MOLECULE
molecule
   55    57     1     0     0
SMALL
bcc


@<TRIPOS>ATOM
      1 CAA          0.0000     0.0000     0.0000 c3         1 3TN       0.135700
      2 OAR          1.4260     0.0000     0.0000 os         1 3TN      -0.354900
      3 CAV          2.0450     0.0000     1.2150 ca         1 3TN       0.127100
      4 CAN          2.3520    -1.2200     1.8140 ca         1 3TN      -0.155000
      5 CAY          2.9990    -1.2920     3.0690 ca         1 3TN      -0.059300
      6 CBA          3.3140    -2.6690     3.6680 c3         1 3TN      -0.009700
      7 CAB          3.9730    -3.6110     2.6320 c3         1 3TN      -0.080600
      8 CAC          1.9930    -3.3160     4.1410 c3         1 3TN      -0.080600
      9 CAP          4.3010    -2.5620     4.8510 c3         1 3TN      -0.069400
     10 CAQ          3.9260    -1.4410     5.8060 c3         1 3TN      -0.068400
     11 CBB          3.9760    -0.0570     5.1200 c3         1 3TN      -0.010700
     12 CAD          5.4450     0.3870     4.9400 c3         1 3TN      -0.082100
     13 CAE          3.2830     0.9330     6.0860 c3         1 3TN      -0.082100
     14 CAZ          3.2980    -0.0830     3.7440 ca         1 3TN      -0.075300
     15 CAO          2.9920     1.1390     3.1050 ca         1 3TN      -0.098000
     16 CAX          2.3730     1.1820     1.8580 cp         1 3TN      -0.025000
     17 CAW          2.0790     2.4660     1.2560 cp         1 3TN      -0.070000
     18 CAM          0.8510     3.0750     1.5140 ca         1 3TN      -0.094000
     19 CAU          3.0070     3.0950     0.4240 ca         1 3TN       0.124100
     20 OAH          4.2160     2.5230     0.1540 oh         1 3TN      -0.504100
     21 CAL          2.7060     4.3310    -0.1470 ca         1 3TN      -0.224000
     22 CAK          1.4780     4.9390     0.1130 ca         1 3TN      -0.098000
     23 CAT          0.5500     4.3110     0.9430 ca         1 3TN      -0.036800
     24 CAJ         -0.7300     4.9450     1.2130 ce         1 3TN      -0.206200
     25 CAI         -1.8370     4.3120     1.6610 cf         1 3TN      -0.130200
     26 CAS         -3.0770     5.0740     1.9060 c          1 3TN       0.874800
     27 OAG         -4.0280     4.2230     2.3580 o          1 3TN      -0.835800
     28 OAF         -3.2390     6.2710     1.7360 o          1 3TN      -0.835800
     29 HAI         -1.8130     3.2450     1.8470 ha         1 3TN       0.111000
     30 HAJ         -0.7900     6.0140     1.0450 ha         1 3TN       0.138000
     31 HAM          0.1310     2.5870     2.1600 ha         1 3TN       0.148000
     32 HAH          4.5870     2.9230    -0.6150 ho         1 3TN       0.410000
     33 HAL          3.4260     4.8190    -0.7920 ha         1 3TN       0.117000
     34 HAK          1.2440     5.8990    -0.3310 ha         1 3TN       0.133000
     35 HAO          3.2450     2.0690     3.6000 ha         1 3TN       0.139000
     36 HAN          2.0890    -2.1390     1.3040 ha         1 3TN       0.132000
     37 HAA1        -0.3610     0.8240    -0.6040 h1         1 3TN       0.037367
     38 HAA2        -0.3610     0.1110     1.0150 h1         1 3TN       0.037367
     39 HAA3        -0.3610    -0.9350    -0.4120 h1         1 3TN       0.037367
     40 HAB1         4.3780    -4.4780     3.1400 hc         1 3TN       0.035033
     41 HAB2         3.2310    -3.9290     1.9100 hc         1 3TN       0.035033
     42 HAB3         4.7720    -3.0850     2.1230 hc         1 3TN       0.035033
     43 HAC1         2.2140    -4.1370     4.8120 hc         1 3TN       0.035033
     44 HAC2         1.3940    -2.5770     4.6600 hc         1 3TN       0.035033
     45 HAC3         1.4450    -3.6870     3.2840 hc         1 3TN       0.035033
     46 HAP1         4.2990    -3.5000     5.3940 hc         1 3TN       0.038700
     47 HAP2         5.2950    -2.3760     4.4630 hc         1 3TN       0.038700
     48 HAQ1         4.6350    -1.4400     6.6250 hc         1 3TN       0.042200
     49 HAQ2         2.9140    -1.6120     6.1530 hc         1 3TN       0.042200
     50 HAD1         5.8770    -0.1300     4.0920 hc         1 3TN       0.036033
     51 HAD2         5.4800     1.4560     4.7670 hc         1 3TN       0.036033
     52 HAD3         6.0070     0.1480     5.8340 hc         1 3TN       0.036033
     53 HAE1         2.2190     0.9520     5.8820 hc         1 3TN       0.036033
     54 HAE2         3.6950     1.9250     5.9440 hc         1 3TN       0.036033
     55 HAE3         3.4480     0.6160     7.1090 hc         1 3TN       0.036033
@<TRIPOS>BOND
     1     1     2 1
     2     1    37 1
     3     1    38 1
     4     1    39 1
     5     2     3 1
     6     3     4 ar
     7     3    16 ar
     8     4     5 ar
     9     4    36 1
    10     5    14 ar
    11     5     6 1
    12     6     7 1
    13     6     8 1
    14     6     9 1
    15     7    40 1
    16     7    41 1
    17     7    42 1
    18     8    43 1
    19     8    44 1
    20     8    45 1
    21     9    46 1
    22     9    47 1
    23     9    10 1
    24    10    48 1
    25    10    49 1
    26    10    11 1
    27    11    14 1
    28    11    12 1
    29    11    13 1
    30    12    50 1
    31    12    51 1
    32    12    52 1
    33    13    53 1
    34    13    54 1
    35    13    55 1
    36    14    15 ar
    37    15    16 ar
    38    15    35 1
    39    16    17 1
    40    17    18 ar
    41    17    19 ar
    42    18    23 ar
    43    18    31 1
    44    19    20 1
    45    19    21 ar
    46    20    32 1
    47    21    33 1
    48    21    22 ar
    49    22    23 ar
    50    22    34 1
    51    23    24 1
    52    24    25 2
    53    24    30 1
    54    25    26 1
    55    25    29 1
    56    26    27 1
    57    26    28 1
@<TRIPOS>SUBSTRUCTURE
     1 3TN         1 TEMP              0 ****  ****    0 ROOT
