@<TRIPOS>MOLECULE
3TN
   55    57     1     0     0
SMALL
bcc


@<TRIPOS>ATOM
      1 CAA        -0.3510   -0.2780    0.4220 c3        1 3TN      0.108700
      2 OAR         0.9930    0.1980    0.2830 os        1 3TN     -0.347900
      3 CAV         1.7300    0.1580    1.4530 ca        1 3TN      0.133100
      4 CAN         1.9690   -1.0650    2.0880 ca        1 3TN     -0.177000
      5 CAY         2.8030   -1.1500    3.2090 ca        1 3TN     -0.052300
      6 CBA         3.0260   -2.5060    3.8250 c3        1 3TN     -0.001700
      7 CAB         3.3560   -3.5340    2.7440 c3        1 3TN     -0.083600
      8 CAC         1.7540   -2.9460    4.5450 c3        1 3TN     -0.083600
      9 CAP         4.1980   -2.4820    4.8070 c3        1 3TN     -0.066400
     10 CAQ         4.1620   -1.2760    5.7110 c3        1 3TN     -0.067400
     11 CBB         4.2660    0.0370    4.9350 c3        1 3TN      0.003300
     12 CAD         5.7120    0.2760    4.5100 c3        1 3TN     -0.084600
     13 CAE         3.8440    1.1610    5.8810 c3        1 3TN     -0.084600
     14 CAZ         3.3850    0.0230    3.7140 ca        1 3TN     -0.093300
     15 CAO         3.1460    1.2400    3.0620 ca        1 3TN     -0.093000
     16 CAX         2.3170    1.3450    1.9410 cp        1 3TN     -0.020000
     17 CAW         2.0570    2.6520    1.3410 cp        1 3TN     -0.054000
     18 CAM         0.7530    3.0040    0.9650 ca        1 3TN     -0.058000
     19 CAU         3.0830    3.6010    1.1480 ca        1 3TN      0.101100
     20 OAH         4.3710    3.2640    1.5260 oh        1 3TN     -0.510100
     21 CAL         2.8040    4.8580    0.5960 ca        1 3TN     -0.228000
     22 CAK         1.5010    5.1820    0.2390 ca        1 3TN     -0.111000
     23 CAT         0.4560    4.2620    0.4200 ca        1 3TN     -0.034800
     24 CAJ        -0.8840    4.6440    0.0100 ce        1 3TN     -0.176200
     25 CAI        -2.0590    4.1150    0.3660 cf        1 3TN     -0.147200
     26 CAS        -2.3620    2.9790    1.3110 c         1 3TN      0.896800
     27 OAG        -2.2190    1.7910    0.8910 o         1 3TN     -0.837800
     28 OAF        -2.7970    3.2670    2.4600 o         1 3TN     -0.837800
     29 HAI        -2.9810    4.5530   -0.0560 ha        1 3TN      0.098000
     30 HAJ        -0.8900    5.5060   -0.6870 ha        1 3TN      0.083000
     31 HAM        -0.0660    2.2650    1.0900 ha        1 3TN      0.203000
     32 HAH         4.9590    3.9480    1.1790 ho        1 3TN      0.401000
     33 HAL         3.6170    5.5820    0.4480 ha        1 3TN      0.111000
     34 HAK         1.2880    6.1720   -0.1890 ha        1 3TN      0.117000
     35 HAO         3.6250    2.1600    3.4380 ha        1 3TN      0.142000
     36 HAN         1.4800   -1.9660    1.6900 ha        1 3TN      0.133000
     37 HAA1       -0.3500   -1.3940    0.3610 h1        1 3TN      0.056367
     38 HAA2       -0.8200    0.0770    1.3730 h1        1 3TN      0.056367
     39 HAA3       -0.8910    0.1840   -0.4430 h1        1 3TN      0.056367
     40 HAB1        3.7090   -4.4820    3.2180 hc        1 3TN      0.034033
     41 HAB2        2.4560   -3.7660    2.1270 hc        1 3TN      0.034033
     42 HAB3        4.1590   -3.1470    2.0730 hc        1 3TN      0.034033
     43 HAC1        1.5100   -2.2420    5.3750 hc        1 3TN      0.034033
     44 HAC2        0.8960   -2.9590    3.8300 hc        1 3TN      0.034033
     45 HAC3        1.8870   -3.9700    4.9670 hc        1 3TN      0.034033
     46 HAP1        4.1730   -3.4170    5.4280 hc        1 3TN      0.034200
     47 HAP2        5.1600   -2.4890    4.2290 hc        1 3TN      0.034200
     48 HAQ1        3.2070   -1.2780    6.3000 hc        1 3TN      0.036700
     49 HAQ2        5.0090   -1.3340    6.4460 hc        1 3TN      0.036700
     50 HAD1        5.7860    1.2240    3.9250 hc        1 3TN      0.033867
     51 HAD2        6.3690    0.3550    5.4090 hc        1 3TN      0.033867
     52 HAD3        6.0770   -0.5620    3.8710 hc        1 3TN      0.033867
     53 HAE1        2.7400    1.1370    6.0430 hc        1 3TN      0.033867
     54 HAE2        4.1210    2.1580    5.4640 hc        1 3TN      0.033867
     55 HAE3        4.3560    1.0400    6.8670 hc        1 3TN      0.033867
@<TRIPOS>BOND
     1    1    2 1   
     2    1   37 1   
     3    1   38 1   
     4    1   39 1   
     5    2    3 1   
     6    3    4 ar  
     7    3   16 ar  
     8    4    5 ar  
     9    4   36 1   
    10    5    6 1   
    11    5   14 ar  
    12    6    7 1   
    13    6    8 1   
    14    6    9 1   
    15    7   40 1   
    16    7   41 1   
    17    7   42 1   
    18    8   43 1   
    19    8   44 1   
    20    8   45 1   
    21    9   10 1   
    22    9   46 1   
    23    9   47 1   
    24   10   11 1   
    25   10   48 1   
    26   10   49 1   
    27   11   12 1   
    28   11   13 1   
    29   11   14 1   
    30   12   50 1   
    31   12   51 1   
    32   12   52 1   
    33   13   53 1   
    34   13   54 1   
    35   13   55 1   
    36   14   15 ar  
    37   15   16 ar  
    38   15   35 1   
    39   16   17 1   
    40   17   18 ar  
    41   17   19 ar  
    42   18   23 ar  
    43   18   31 1   
    44   19   20 1   
    45   19   21 ar  
    46   20   32 1   
    47   21   22 ar  
    48   21   33 1   
    49   22   23 ar  
    50   22   34 1   
    51   23   24 1   
    52   24   25 2   
    53   24   30 1   
    54   25   26 1   
    55   25   29 1   
    56   26   27 1   
    57   26   28 1   
@<TRIPOS>SUBSTRUCTURE
     1 3TN         1 TEMP              0 ****  ****    0 ROOT
