@<TRIPOS>MOLECULE
3TO
   48    48     1     0     0
SMALL
bcc


@<TRIPOS>ATOM
      1 C1          1.4170    0.8760    0.8570 c2        1 3TO     -0.133000
      2 N1          1.4840   -2.5190    1.6260 n2        1 3TO     -0.357000
      3 O1          0.1300    5.2450   12.1500 os        1 3TO     -0.154000
      4 C2          1.9010   -3.4720    1.0640 c1        1 3TO      0.148000
      5 C3          0.9770   -1.3680    2.2800 cx        1 3TO      0.132000
      6 N3          0.9220    3.5490    9.9480 n4        1 3TO     -0.007000
      7 C4         -0.4130   -0.8350    1.8050 cx        1 3TO     -0.090000
      8 C5          0.8190   -0.1170    1.4670 cu        1 3TO     -0.160000
      9 C6         -1.4240   -0.3160    2.7790 c3        1 3TO     -0.119000
     10 C7         -1.1190    1.0950    3.2580 c3        1 3TO     -0.059000
     11 C8         -2.1380    1.5980    4.1290 c1        1 3TO     -0.159000
     12 C9         -0.0940    1.9530    6.9750 c1        1 3TO     -0.008000
     13 C10         0.5820    2.2150    7.9290 c1        1 3TO     -0.332000
     14 C11        -4.8570    1.8220    6.3830 c2        1 3TO     -0.183000
     15 C12        -4.0180    2.5620    5.6510 c2        1 3TO     -0.078000
     16 C13        -2.9980    2.0320    4.8450 c1        1 3TO     -0.149000
     17 C14         1.4480    2.4560    9.0430 c3        1 3TO      0.024000
     18 C15         0.9130    4.0110   12.4340 c3        1 3TO     -0.086000
     19 C16         1.7300    3.6300   11.2080 c3        1 3TO     -0.119000
     20 C17        -0.1570    3.0300   12.8510 c2        1 3TO     -0.185000
     21 C18        -1.3560    3.6610   12.8560 c2        1 3TO     -0.236000
     22 C19        -1.1490    5.0770   12.4090 c1        1 3TO      0.124000
     23 C20         0.8980    4.8550    9.2350 c3        1 3TO     -0.196000
     24 H1          2.5110    0.9880    0.8500 ha        1 3TO      0.131500
     25 H2          0.8570    1.6490    0.3110 ha        1 3TO      0.131500
     26 HN2         2.3080   -1.1640    3.8020 hn        1 3TO      0.160500
     27 HN2A        0.9510   -1.9840    4.2140 hn        1 3TO      0.160500
     28 H5         -0.8960   -1.4110    0.9820 hc        1 3TO      0.143000
     29 H6         -2.4350   -0.3210    2.2870 hc        1 3TO      0.098000
     30 H6A        -1.4820   -1.0100    3.6590 hc        1 3TO      0.098000
     31 H7         -1.0220    1.7770    2.3650 hc        1 3TO      0.109500
     32 H7A        -0.1250    1.1050    3.7890 hc        1 3TO      0.109500
     33 H9         -0.7060    1.7260    6.1230 ha        1 3TO      0.272000
     34 H11        -4.8140    0.7260    6.4170 ha        1 3TO      0.124000
     35 H12        -5.6540    2.2810    6.9830 ha        1 3TO      0.124000
     36 H13        -4.1040    3.6650    5.6240 ha        1 3TO      0.139000
     37 H14         1.5440    1.5130    9.6630 hx        1 3TO      0.151500
     38 H14A        2.4760    2.7720    8.6910 hx        1 3TO      0.151500
     39 H16         2.5450    4.3950   11.0540 hx        1 3TO      0.156000
     40 H16A        2.2080    2.6260   11.4050 hx        1 3TO      0.156000
     41 H17         1.6050    4.2710   13.2810 h1        1 3TO      0.190000
     42 H18         0.0860    2.0080   13.1440 ha        1 3TO      0.187000
     43 H19        -2.3350    3.2720   13.1440 ha        1 3TO      0.201000
     44 H20         0.4850    5.6450    9.9220 hx        1 3TO      0.152000
     45 H20A        1.9390    5.1340    8.9220 hx        1 3TO      0.152000
     46 H20B        0.2470    4.7600    8.3240 hx        1 3TO      0.152000
     47 N2          1.3150   -1.2180    3.6800 n3        1 3TO     -0.317000
     48 H31        -0.0480    3.3110   10.2030 hn        1 3TO      0.249000
@<TRIPOS>BOND
     1    1    8 1   
     2    1   24 1   
     3    1   25 1   
     4    2    4 1   
     5    2    5 1   
     6    3   18 1   
     7    3   22 1   
     8    5    7 1   
     9    5    8 1   
    10    5   47 1   
    11    6   17 1   
    12    6   19 1   
    13    6   23 1   
    14    6   48 1   
    15    7    8 1   
    16    7    9 1   
    17    7   28 1   
    18    9   10 1   
    19    9   29 1   
    20    9   30 1   
    21   10   11 1   
    22   10   31 1   
    23   10   32 1   
    24   11   16 1   
    25   12   13 1   
    26   12   33 1   
    27   13   17 1   
    28   14   15 1   
    29   14   34 1   
    30   14   35 1   
    31   15   16 1   
    32   15   36 1   
    33   17   37 1   
    34   17   38 1   
    35   18   19 1   
    36   18   20 1   
    37   18   41 1   
    38   19   39 1   
    39   19   40 1   
    40   20   21 1   
    41   20   42 1   
    42   21   22 1   
    43   21   43 1   
    44   23   44 1   
    45   23   45 1   
    46   23   46 1   
    47   26   47 1   
    48   27   47 1   
@<TRIPOS>SUBSTRUCTURE
     1 3TO         1 TEMP              0 ****  ****    0 ROOT
