@<TRIPOS>MOLECULE
3TP
   49    51     1     0     0
SMALL
bcc


@<TRIPOS>ATOM
      1 C2          0.8380   -1.1750   -0.1510 c3        1 3TP      0.046500
      2 C3          0.5590    0.1100   -0.9840 c         1 3TP      0.639100
      3 O5          1.5070    0.9110   -1.1470 o         1 3TP     -0.608100
      4 C10        -1.0150    1.5120   -2.2480 c3        1 3TP      0.084000
      5 C11        -2.4750    1.3690   -2.6990 c3        1 3TP     -0.089900
      6 C12        -2.9800    0.0370   -2.1540 c3        1 3TP     -0.089900
      7 C13        -1.8050   -0.6110   -1.4010 c3        1 3TP      0.084000
      8 C20         0.4600   -2.1970    2.0740 cc        1 3TP      0.455700
      9 C22         0.7660   -4.1370    3.0120 cd        1 3TP      0.611500
     10 C25         1.3220   -5.4630    3.2750 ca        1 3TP     -0.100500
     11 C26         1.4300   -5.9200    4.5940 ca        1 3TP     -0.114500
     12 C27         1.9780   -7.1780    4.8410 ca        1 3TP     -0.025500
     13 C29         2.2950   -7.5230    2.4800 ca        1 3TP     -0.025500
     14 C30         1.7540   -6.2690    2.2140 ca        1 3TP     -0.114500
     15 C1          0.4260   -0.9230    1.3130 c3        1 3TP     -0.098000
     16 N4         -0.6830    0.3090   -1.4840 n         1 3TP     -0.432800
     17 N6          2.2920   -1.5210   -0.2800 n4        1 3TP     -0.831600
     18 N21         1.1950   -3.2990    1.9380 nd        1 3TP     -0.736000
     19 N23        -0.2030   -3.5070    3.7340 nc        1 3TP     -0.316300
     20 O24        -0.4080   -2.3330    3.1870 os        1 3TP     -0.097100
     21 C28         2.4150   -7.9920    3.7930 ca        1 3TP     -0.333500
     22 S34         3.1390   -9.4990    4.1030 sy        1 3TP      1.392300
     23 O35         3.9020   -9.8620    2.9870 o         1 3TP     -0.644300
     24 O36         3.7600   -9.4530    5.3530 o         1 3TP     -0.644300
     25 C37         1.7590  -10.4620    4.1860 c3        1 3TP     -0.371300
     26 C44         1.2850    0.1240    1.9980 c3        1 3TP     -0.127100
     27 H2          0.2520   -2.0530   -0.5610 hx        1 3TP      0.127700
     28 H12        -3.3210   -0.6320   -2.9820 hc        1 3TP      0.075450
     29 H13        -2.0760   -0.7940   -0.3250 h1        1 3TP      0.062200
     30 H26         1.0920   -5.2960    5.4370 ha        1 3TP      0.151000
     31 H27         2.0890   -7.5290    5.8850 ha        1 3TP      0.170000
     32 H29         2.6540   -8.1550    1.6460 ha        1 3TP      0.170000
     33 H30         1.6670   -5.9220    1.1740 ha        1 3TP      0.151000
     34 H1         -0.6460   -0.5570    1.2930 hc        1 3TP      0.132700
     35 HN61        2.4950   -1.7790   -1.2500 hn        1 3TP      0.476467
     36 HN62        2.8480   -0.6840   -0.0440 hn        1 3TP      0.476467
     37 H371        1.0260  -10.1280    4.9620 h1        1 3TP      0.123367
     38 H372        2.0210  -11.5200    4.4510 h1        1 3TP      0.123367
     39 H373        1.1970  -10.5200    3.2220 h1        1 3TP      0.123367
     40 H441        0.7960    0.4400    2.9550 hc        1 3TP      0.078367
     41 H442        2.2990   -0.2710    2.2490 hc        1 3TP      0.078367
     42 H443        1.3930    1.0250    1.3410 hc        1 3TP      0.078367
     43 H10A       -0.3150    1.6000   -3.1240 h1        1 3TP      0.062200
     44 H11A       -2.5360    1.3930   -3.8160 hc        1 3TP      0.075450
     45 H12A       -3.8420    0.1900   -1.4580 hc        1 3TP      0.075450
     46 H13A       -1.5310   -1.5960   -1.8710 h1        1 3TP      0.062200
     47 H10        -0.8690    2.4150   -1.5940 h1        1 3TP      0.062200
     48 H63         2.5420   -2.2960    0.3460 hn        1 3TP      0.476467
     49 H11        -3.0840    2.2200   -2.3050 hc        1 3TP      0.075450
@<TRIPOS>BOND
     1    1    2 1
     2    1   15 1
     3    1   17 1
     4    1   27 1
     5    2    3 2
     6    2   16 1
     7    4    5 1
     8    4   16 1
     9    4   43 1
    10    4   47 1
    11    5    6 1
    12    5   44 1
    13    5   49 1
    14    6    7 1
    15    6   28 1
    16    6   45 1
    17    7   16 1
    18    7   29 1
    19    7   46 1
    20    8   15 1
    21    8   18 2
    22    8   20 1
    23    9   10 1
    24    9   18 1
    25    9   19 2
    26   10   11 ar
    27   10   14 ar
    28   11   12 ar
    29   11   30 1
    30   12   21 ar
    31   12   31 1
    32   13   14 ar
    33   13   21 ar
    34   13   32 1
    35   14   33 1
    36   15   26 1
    37   15   34 1
    38   17   35 1
    39   17   36 1
    40   17   48 1
    41   19   20 1
    42   21   22 1
    43   22   23 2
    44   22   24 2
    45   22   25 1
    46   25   37 1
    47   25   38 1
    48   25   39 1
    49   26   40 1
    50   26   41 1
    51   26   42 1
@<TRIPOS>SUBSTRUCTURE
     1 3TP         1 TEMP              0 ****  ****    0 ROOT
