@<TRIPOS>MOLECULE
3TQ
   61    64     1     0     0
SMALL
bcc


@<TRIPOS>ATOM
      1 C4         -0.5570    0.4010    0.5800 c3        1 3TQ      0.173800
      2 C6         -1.7520   -1.4300    1.5830 c3        1 3TQ      0.176300
      3 C7         -1.7030   -2.8570    2.1260 c3        1 3TQ     -0.061900
      4 C8         -1.1720   -3.8180    1.0780 c3        1 3TQ     -0.058400
      5 C10         0.1020   -1.8880    0.0910 c3        1 3TQ      0.176300
      6 C13        -1.1490   -6.4590    0.4560 ca        1 3TQ     -0.067500
      7 C15        -0.1460   -8.3110   -0.7460 ca        1 3TQ     -0.117000
      8 C17        -2.2540   -7.3800   -1.4960 ca        1 3TQ     -0.117000
      9 C21        -0.2740   -9.9700   -4.9590 c         1 3TQ      0.592300
     10 C24         1.1510  -10.5880   -7.0020 cc        1 3TQ      0.049800
     11 C26         3.2140  -10.2850   -8.6140 ca        1 3TQ     -0.153300
     12 C1          0.5240    2.4770   -0.2280 c3        1 3TQ     -0.090600
     13 C2          0.7890    1.0660    0.2590 c3        1 3TQ     -0.064700
     14 C3          1.7050    1.0850    1.4620 c3        1 3TQ     -0.090600
     15 N5         -0.4710   -0.9710    1.0630 n3        1 3TQ     -0.726600
     16 C9          0.1710   -3.3330    0.5800 c3        1 3TQ     -0.061900
     17 S11        -1.1520   -5.4140    1.8420 sx        1 3TQ      0.321400
     18 O12         0.1900   -5.5860    2.4480 o         1 3TQ     -0.480200
     19 C14        -0.1150   -7.3870    0.2940 ca        1 3TQ     -0.057000
     20 C16        -1.2180   -8.3060   -1.6470 ca        1 3TQ     -0.162300
     21 C18        -2.2170   -6.4650   -0.4430 ca        1 3TQ     -0.057000
     22 C19        -1.2690   -9.3160   -2.7410 c3        1 3TQ      0.174100
     23 N20        -0.2970   -8.9660   -3.8310 n4        1 3TQ     -0.666800
     24 O22        -1.1830  -10.7890   -5.0050 o         1 3TQ     -0.418100
     25 C23         0.8340   -9.8470   -5.8740 cd        1 3TQ     -0.143100
     26 C25         2.3750  -10.0240   -7.5290 ca        1 3TQ     -0.123800
     27 C27         4.3410   -9.4550   -8.7510 ca        1 3TQ      0.390200
     28 N28         4.6620   -8.4370   -7.9160 nb        1 3TQ     -0.597000
     29 C29         3.8720   -8.1680   -6.8680 ca        1 3TQ      0.420200
     30 C30         2.7210   -8.9470   -6.6510 ca        1 3TQ     -0.021200
     31 O31         1.7850   -8.8220   -5.6260 os        1 3TQ     -0.214200
     32 H1         -1.0560    1.0090    1.3890 h1        1 3TQ      0.033200
     33 H2         -1.2060    0.4670   -0.3450 h1        1 3TQ      0.033200
     34 H3         -2.0450   -0.7410    2.4250 h1        1 3TQ      0.034450
     35 H4         -2.5640   -1.3770    0.7970 h1        1 3TQ      0.034450
     36 H5         -1.0410   -2.8880    3.0340 hc        1 3TQ      0.059450
     37 H6         -2.7400   -3.1490    2.4350 hc        1 3TQ      0.059450
     38 H7         -1.8890   -3.8410    0.2140 h1        1 3TQ      0.077700
     39 H8         -0.4690   -1.8680   -0.8850 h1        1 3TQ      0.034450
     40 H9          1.1540   -1.5410   -0.1200 h1        1 3TQ      0.034450
     41 H10         0.6620   -9.0520   -0.8430 ha        1 3TQ      0.141000
     42 H11        -3.1090   -7.3790   -2.1910 ha        1 3TQ      0.141000
     43 H14        -0.1390    2.4660   -1.1260 hc        1 3TQ      0.038367
     44 H15         0.0310    3.0830    0.5700 hc        1 3TQ      0.038367
     45 H16         1.4860    2.9730   -0.5030 hc        1 3TQ      0.038367
     46 H17         1.2940    0.4980   -0.5720 hc        1 3TQ      0.041700
     47 H18         2.6390    1.6500    1.2250 hc        1 3TQ      0.038367
     48 H19         1.9850    0.0460    1.7620 hc        1 3TQ      0.038367
     49 H20         1.2030    1.5790    2.3290 hc        1 3TQ      0.038367
     50 H22         0.5190   -3.9740   -0.2710 hc        1 3TQ      0.059450
     51 H23         0.9260   -3.4210    1.4090 hc        1 3TQ      0.059450
     52 H25         0.7320   -7.3780    1.0090 ha        1 3TQ      0.171500
     53 H26        -3.0460   -5.7470   -0.3270 ha        1 3TQ      0.171500
     54 H27        -0.9910  -10.3410   -2.3580 hx        1 3TQ      0.116700
     55 H28        -2.2970   -9.3780   -3.2040 hx        1 3TQ      0.116700
     56 H29        -0.5370   -8.0470   -4.2230 hn        1 3TQ      0.467300
     57 H30         5.0490   -9.6070   -9.5900 h4        1 3TQ      0.056100
     58 H31         4.1600   -7.3330   -6.2060 h4        1 3TQ      0.058100
     59 H12         0.5930  -11.4310   -7.4180 ha        1 3TQ      0.204000
     60 H202        0.6490   -8.8900   -3.4340 hn        1 3TQ      0.467300
     61 H13         3.0110  -11.0950   -9.3280 ha        1 3TQ      0.174000
@<TRIPOS>BOND
     1    1   13 1   
     2    1   15 1   
     3    1   32 1   
     4    1   33 1   
     5    2    3 1   
     6    2   15 1   
     7    2   34 1   
     8    2   35 1   
     9    3    4 1   
    10    3   36 1   
    11    3   37 1   
    12    4   16 1   
    13    4   17 1   
    14    4   38 1   
    15    5   15 1   
    16    5   16 1   
    17    5   39 1   
    18    5   40 1   
    19    6   17 1   
    20    6   19 ar  
    21    6   21 ar  
    22    7   19 ar  
    23    7   20 ar  
    24    7   41 1   
    25    8   20 ar  
    26    8   21 ar  
    27    8   42 1   
    28    9   23 1   
    29    9   24 2   
    30    9   25 1   
    31   10   25 2   
    32   10   26 1   
    33   10   59 1   
    34   11   26 ar  
    35   11   27 ar  
    36   11   61 1   
    37   12   13 1   
    38   12   43 1   
    39   12   44 1   
    40   12   45 1   
    41   13   14 1   
    42   13   46 1   
    43   14   47 1   
    44   14   48 1   
    45   14   49 1   
    46   16   50 1   
    47   16   51 1   
    48   17   18 2   
    49   19   52 1   
    50   20   22 1   
    51   21   53 1   
    52   22   23 1   
    53   22   54 1   
    54   22   55 1   
    55   23   56 1   
    56   23   60 1   
    57   25   31 1   
    58   26   30 ar  
    59   27   28 ar  
    60   27   57 1   
    61   28   29 ar  
    62   29   30 ar  
    63   29   58 1   
    64   30   31 1   
@<TRIPOS>SUBSTRUCTURE
     1 3TQ         1 TEMP              0 ****  ****    0 ROOT
