@<TRIPOS>MOLECULE
3TR
   10    10     1     0     0
SMALL
bcc


@<TRIPOS>ATOM
      1 N1           0.0000     0.0000     0.0000 na         1 3TR       0.299600
      2 N2           1.4040     0.0000     0.0000 nc         1 3TR      -0.751800
      3 C3           1.7820     0.0000     1.2560 cd         1 3TR       0.685900
      4 N4           0.6950    -0.0060     2.0330 nd         1 3TR      -0.725000
      5 C5          -0.3810    -0.0010     1.2890 cc         1 3TR       0.302400
      6 N3A          3.1030    -0.0010     1.7070 nv         1 3TR      -0.530500
      7 HN1         -0.5990     0.0020    -0.8020 hn         1 3TR       0.155700
      8 H5          -1.4030    -0.0020     1.6490 h5         1 3TR       0.019100
      9 H3A1         3.8010     0.5180     1.2120 hn         1 3TR       0.273300
     10 H3A2         3.3560    -0.5360     2.5140 hn         1 3TR       0.273300
@<TRIPOS>BOND
     1     1     2 1   
     2     1     5 1   
     3     1     7 1   
     4     2     3 2   
     5     3     4 1   
     6     3     6 1   
     7     4     5 2   
     8     5     8 1   
     9     6     9 1   
    10     6    10 1   
@<TRIPOS>SUBSTRUCTURE
     1 3TR         1 TEMP              0 ****  ****    0 ROOT
