@<TRIPOS>MOLECULE
molecule
   39    40     1     0     0
SMALL
bcc


@<TRIPOS>ATOM
      1 O3G          0.0000     0.0000     0.0000 o          1 3TT      -0.634167
      2 PG           1.6110     0.0000     0.0000 p5         1 3TT       1.137800
      3 O1G          2.1470     0.0000     1.5180 o          1 3TT      -0.634167
      4 O2G          2.1030    -1.2090    -0.6970 o          1 3TT      -0.634167
      5 N3B          2.1720     1.3740    -0.7930 n7         1 3TT      -0.893400
      6 PB           3.8550     1.4120    -0.8160 p5         1 3TT       1.395700
      7 O2B          4.4110     1.4250     0.6950 o          1 3TT      -0.687000
      8 O1B          4.3650     0.2150    -1.5200 o          1 3TT      -0.687000
      9 O3A          4.3500     2.7380    -1.5810 os         1 3TT      -0.718800
     10 PA           5.7970     3.3500    -1.9350 p5         1 3TT       1.440800
     11 O1A          6.3960     2.6020    -3.2280 o          1 3TT      -0.843000
     12 O2A          6.7100     3.1540    -0.7850 o          1 3TT      -0.843000
     13 O5'          5.6540     4.9240    -2.2440 os         1 3TT      -0.586200
     14 C5'          6.7750     5.7740    -2.4890 c3         1 3TT       0.243400
     15 C4'          6.2870     7.2010    -2.7460 c3         1 3TT       0.269200
     16 O4'          5.4920     7.6680    -1.6380 os         1 3TT      -0.409600
     17 S3'          5.1400     7.2390    -4.1780 ss         1 3TT      -0.445200
     18 C2'          3.7250     7.9680    -3.2560 c3         1 3TT       0.024700
     19 C1'          4.4790     8.5970    -2.0500 c3         1 3TT       0.321500
     20 N1           3.5440     8.8320    -0.9460 n          1 3TT      -0.383000
     21 C2           2.4920     9.6520    -1.1240 c          1 3TT       0.848900
     22 O2           2.3290    10.1930    -2.2050 o          1 3TT      -0.771500
     23 N3           1.6260     9.8830    -0.1390 nc         1 3TT      -0.841100
     24 C4           1.7790     9.3080     1.0460 cc         1 3TT       0.173500
     25 N4           0.8780     9.5540     2.0560 nz         1 3TT      -0.627600
     26 C5           2.8710     8.4420     1.2660 cc         1 3TT      -0.302600
     27 C6           3.7400     8.2140     0.2520 cd         1 3TT      -0.026400
     28 H3           1.6530     2.2280    -0.7430 hn         1 3TT       0.395800
     29 H6           7.3170     5.4170    -3.3560 h1         1 3TT       0.036700
     30 H7           7.4300     5.7670    -1.6260 h1         1 3TT       0.036700
     31 H8           7.1230     7.8690    -2.9160 h2         1 3TT       0.033700
     32 H9           3.2270     8.7290    -3.8450 h1         1 3TT       0.096700
     33 H10          3.0360     7.1990    -2.9270 h1         1 3TT       0.096700
     34 H11          4.9400     9.5300    -2.3520 h2         1 3TT       0.041700
     35 H12          1.3540     9.9590     2.8370 hn         1 3TT       0.368800
     36 H13          0.4490     8.6940     2.3360 hn         1 3TT       0.368800
     37 H14          3.0080     7.9640     2.2280 ha         1 3TT       0.096000
     38 H15          4.5860     7.5530     0.3960 h4         1 3TT       0.173000
     39 H43          0.1750    10.1860     1.7290 hn         1 3TT       0.368800
@<TRIPOS>BOND
     1     4     2 1
     2     3     2 1
     3     2     5 1
     4     2     1 1
     5     5     6 1
     6    12    10 1
     7     6     8 1
     8     6     7 1
     9     6     9 1
    10    11    10 1
    11    10     9 1
    12    10    13 1
    13    13    14 1
    14    25    24 1
    15    26    24 1
    16    26    27 2
    17    14    15 1
    18    24    23 2
    19    27    20 1
    20    16    15 1
    21    16    19 1
    22    15    17 1
    23    23    21 1
    24    20    21 1
    25    20    19 1
    26    21    22 2
    27    19    18 1
    28    17    18 1
    29     5    28 1
    30    14    29 1
    31    14    30 1
    32    15    31 1
    33    18    32 1
    34    18    33 1
    35    19    34 1
    36    25    35 1
    37    25    36 1
    38    26    37 1
    39    27    38 1
    40    39    25 1
@<TRIPOS>SUBSTRUCTURE
     1 3TT         1 TEMP              0 ****  ****    0 ROOT
