@<TRIPOS>MOLECULE
3TT
   39    40     1     0     0
SMALL
bcc


@<TRIPOS>ATOM
      1 O3G          0.0000     0.0000     0.0000 o          1 3TT      -0.480500
      2 PG           1.6110     0.0000     0.0000 p5         1 3TT       0.648800
      3 O1G          2.1470     0.0000     1.5180 o          1 3TT      -0.480500
      4 O2G          2.1030    -1.2090    -0.6970 o          1 3TT      -0.480500
      5 N3B          2.1720     1.3740    -0.7930 n7         1 3TT      -0.336400
      6 PB           3.8550     1.4120    -0.8160 p5         1 3TT       0.849700
      7 O2B          4.4110     1.4250     0.6950 o          1 3TT      -0.457500
      8 O1B          4.3650     0.2150    -1.5200 o          1 3TT      -0.457500
      9 O3A          4.3500     2.7380    -1.5810 os         1 3TT      -0.494800
     10 PA           5.7970     3.3500    -1.9350 p5         1 3TT       0.974800
     11 O1A          6.3960     2.6020    -3.2280 o          1 3TT      -0.681500
     12 O2A          6.7100     3.1540    -0.7850 o          1 3TT      -0.681500
     13 O5'          5.6540     4.9240    -2.2440 os         1 3TT      -0.477200
     14 C5'          6.7750     5.7740    -2.4890 c3         1 3TT       0.320400
     15 C4'          6.2870     7.2010    -2.7460 c3         1 3TT       0.300200
     16 O4'          5.4920     7.6680    -1.6380 os         1 3TT      -0.383600
     17 S3'          5.1400     7.2390    -4.1780 ss         1 3TT      -0.515200
     18 C2'          3.7250     7.9680    -3.2560 c3         1 3TT       0.078700
     19 C1'          4.4790     8.5970    -2.0500 c3         1 3TT       0.251500
     20 N1           3.5440     8.8320    -0.9460 n          1 3TT      -0.029000
     21 C2           2.4920     9.6520    -1.1240 c          1 3TT       0.748900
     22 O2           2.3290    10.1930    -2.2050 o          1 3TT      -0.885500
     23 N3           1.6260     9.8830    -0.1390 nc         1 3TT      -0.853100
     24 C4           1.7790     9.3080     1.0460 cd         1 3TT      -0.216500
     25 N4           0.8780     9.5540     2.0560 nz         1 3TT       0.366400
     26 C5           2.8710     8.4420     1.2660 cd         1 3TT      -0.206600
     27 C6           3.7400     8.2140     0.2520 cc         1 3TT      -0.229400
     28 H3           1.6530     2.2280    -0.7430 hn         1 3TT       0.304800
     29 H6           7.3170     5.4170    -3.3560 h1         1 3TT      -0.017800
     30 H7           7.4300     5.7670    -1.6260 h1         1 3TT      -0.017800
     31 H8           7.1230     7.8690    -2.9160 h2         1 3TT      -0.000300
     32 H9           3.2270     8.7290    -3.8450 h1         1 3TT       0.070200
     33 H10          3.0360     7.1990    -2.9270 h1         1 3TT       0.070200
     34 H11          4.9400     9.5300    -2.3520 h2         1 3TT       0.002700
     35 H12          1.3540     9.9590     2.8370 hn         1 3TT       0.068133
     36 H13          0.4490     8.6940     2.3360 hn         1 3TT       0.068133
     37 H14          3.0080     7.9640     2.2280 ha         1 3TT       0.060000
     38 H15          4.5860     7.5530     0.3960 h4         1 3TT       0.130000
     39 H43          0.1750    10.1860     1.7290 hn         1 3TT       0.068133
@<TRIPOS>BOND
     1     1     2 1   
     2     2     3 1   
     3     2     4 1   
     4     2     5 1   
     5     5     6 1   
     6     5    28 1   
     7     6     7 1   
     8     6     8 1   
     9     6     9 1   
    10     9    10 1   
    11    10    11 1   
    12    10    12 1   
    13    10    13 1   
    14    13    14 1   
    15    14    15 1   
    16    14    29 1   
    17    14    30 1   
    18    15    16 1   
    19    15    17 1   
    20    15    31 1   
    21    16    19 1   
    22    17    18 1   
    23    18    19 1   
    24    18    32 1   
    25    18    33 1   
    26    19    20 1   
    27    19    34 1   
    28    20    21 1   
    29    20    27 1   
    30    21    22 2   
    31    21    23 1   
    32    23    24 2   
    33    24    25 1   
    34    24    26 1   
    35    25    35 1   
    36    25    36 1   
    37    25    39 1   
    38    26    27 2   
    39    26    37 1   
    40    27    38 1   
@<TRIPOS>SUBSTRUCTURE
     1 3TT         1 TEMP              0 ****  ****    0 ROOT
