@<TRIPOS>MOLECULE
molecule
   56    60     1     0     0
SMALL
bcc


@<TRIPOS>ATOM
      1 C            0.0000     0.0000     0.0000 c          1 3TU       0.884600
      2 N            1.9950     1.1970    -0.6900 n          1 3TU      -0.453800
      3 O           -0.6720    -1.0070     0.5810 o          1 3TU      -0.766300
      4 N1           4.0120    10.9090    -3.2120 ns         1 3TU      -0.466400
      5 C2           4.3600    12.0800    -3.8150 cc         1 3TU       0.315800
      6 N3           4.9780    12.1020    -4.9700 nd         1 3TU      -0.582300
      7 C4           5.3020    10.9630    -5.6210 cd         1 3TU       0.203200
      8 C5           4.9750     9.7410    -5.0580 cc         1 3TU      -0.210400
      9 C6           4.3030     9.7330    -3.8030 c          1 3TU       0.733700
     10 O6           4.0010     8.6800    -3.2680 o          1 3TU      -0.606500
     11 CA           1.5060     0.0000     0.0000 c3         1 3TU       0.056700
     12 CB           2.0160     0.0000     1.4430 c3         1 3TU      -0.071400
     13 CD           4.0440    -0.1260     2.8660 c          1 3TU       0.889600
     14 CG           3.5410    -0.1250     1.4440 c3         1 3TU      -0.161400
     15 NAA          4.0560    13.2670    -3.1970 nz         1 3TU      -0.693600
     16 OAD          1.0640     2.7940     0.6260 o          1 3TU      -0.603500
     17 CAH          6.3110     6.6780    -7.6790 ca         1 3TU      -0.103000
     18 CAI          3.1380     5.4300    -2.3130 ca         1 3TU      -0.230000
     19 CAJ          5.6770     6.2840    -6.5100 ca         1 3TU      -0.127000
     20 CAK          2.4320     4.8000    -1.3130 ca         1 3TU      -0.026000
     21 CAL          6.4860     8.0150    -7.9530 ca         1 3TU      -0.110000
     22 CAM          3.7700     3.2880    -3.2280 ca         1 3TU      -0.200000
     23 CAP          4.5350     6.7850    -4.3520 c3         1 3TU       0.286100
     24 CAQ          2.8370     1.2060    -1.8910 c3         1 3TU       0.140300
     25 NAT          4.4990     5.3220    -4.2970 nu         1 3TU      -0.846600
     26 SAU          6.1190    10.7390    -7.1590 ss         1 3TU      -0.028500
     27 CAX          1.7390     2.4660    -0.3300 c          1 3TU       0.726100
     28 CAZ          3.8030     4.6810    -3.2790 ca         1 3TU       0.204600
     29 CBB          3.0710     2.6580    -2.2300 ca         1 3TU      -0.046300
     30 CBC          5.2210     7.2250    -5.6190 ca         1 3TU      -0.041300
     31 CBD          2.3950     3.4030    -1.2570 ca         1 3TU      -0.183600
     32 CBE          6.0270     8.9880    -7.0560 ca         1 3TU      -0.018100
     33 CBH          5.3920     8.5980    -5.8850 ca         1 3TU      -0.019800
     34 OE1          5.3590    -0.2260     3.1120 o          1 3TU      -0.776300
     35 OE2          3.2620    -0.0350     3.7830 o          1 3TU      -0.776300
     36 OXT         -0.6050     0.9080    -0.5190 o          1 3TU      -0.766300
     37 HN1          3.5410    10.9210    -2.3300 hn         1 3TU       0.328500
     38 HA           1.8670    -0.8840    -0.5110 h1         1 3TU       0.055700
     39 HB           1.5850    -0.8370     1.9780 hc         1 3TU       0.085200
     40 HBA          1.7290     0.9250     1.9270 hc         1 3TU       0.085200
     41 HG           3.8280    -1.0500     0.9600 hc         1 3TU       0.035700
     42 HGA          3.9730     0.7120     0.9090 hc         1 3TU       0.035700
     43 HNAA         4.5050    13.3020    -2.3030 hn         1 3TU       0.446800
     44 HNAB         3.0650    13.3350    -3.0750 hn         1 3TU       0.446800
     45 HAH          6.6690     5.9320    -8.3780 ha         1 3TU       0.139000
     46 HAI          3.1650     6.5120    -2.3550 ha         1 3TU       0.133000
     47 HAJ          5.5410     5.2300    -6.2990 ha         1 3TU       0.149000
     48 HAK          1.9150     5.3860    -0.5630 ha         1 3TU       0.139000
     49 HAL          6.9820     8.3170    -8.8670 ha         1 3TU       0.134000
     50 HAM          4.2870     2.7050    -3.9800 ha         1 3TU       0.117000
     51 HAP          3.5230     7.1710    -4.3370 h1         1 3TU       0.078700
     52 HAPA         5.0790     7.1650    -3.4960 h1         1 3TU       0.078700
     53 HAQ          2.3250     0.7120    -2.7080 h1         1 3TU       0.054700
     54 HAQA         3.7820     0.7160    -1.6850 h1         1 3TU       0.054700
     55 HNAT         5.0020     4.7840    -4.9750 hn         1 3TU       0.429800
     56 HAA3         4.3680    14.0290    -3.7650 hn         1 3TU       0.446800
@<TRIPOS>BOND
     1    11     1 1   
     2     3     1 1   
     3     1    36 1   
     4    11     2 1   
     5    24     2 1   
     6     2    27 1   
     7     5     4 1   
     8     4     9 1   
     9     4    37 1   
    10    15     5 1   
    11     5     6 2   
    12     6     7 1   
    13     7     8 2   
    14     7    26 1   
    15     9     8 1   
    16     8    33 1   
    17    10     9 2   
    18    12    11 1   
    19    11    38 1   
    20    14    12 1   
    21    12    39 1   
    22    12    40 1   
    23    14    13 1   
    24    13    34 1   
    25    13    35 1   
    26    14    41 1   
    27    14    42 1   
    28    15    43 1   
    29    15    44 1   
    30    27    16 2   
    31    19    17 ar  
    32    21    17 ar  
    33    17    45 1   
    34    28    18 ar  
    35    20    18 ar  
    36    18    46 1   
    37    30    19 ar  
    38    19    47 1   
    39    31    20 ar  
    40    20    48 1   
    41    32    21 ar  
    42    21    49 1   
    43    29    22 ar  
    44    22    28 ar  
    45    22    50 1   
    46    23    30 1   
    47    23    25 1   
    48    23    51 1   
    49    23    52 1   
    50    24    29 1   
    51    24    53 1   
    52    24    54 1   
    53    28    25 1   
    54    25    55 1   
    55    26    32 1   
    56    27    31 1   
    57    29    31 ar  
    58    33    30 ar  
    59    33    32 ar  
    60    56    15 1   
@<TRIPOS>SUBSTRUCTURE
     1 3TU         1 TEMP              0 ****  ****    0 ROOT
