@<TRIPOS>MOLECULE
3TU
   55    59     1     0     0
SMALL
bcc


@<TRIPOS>ATOM
      1 C           1.5510   -0.7000   -0.6440 c         1 3TU      0.894600
      2 N           2.7650    1.4940   -0.5040 n         1 3TU     -0.400800
      3 O           1.8680   -1.0330   -1.8310 o         1 3TU     -0.845800
      4 N1          4.0530   10.5340   -2.8420 n         1 3TU     -0.498400
      5 C2          5.1370   11.4240   -2.8840 cc        1 3TU      0.677800
      6 N3          6.0620   11.4170   -3.8750 nd        1 3TU     -0.672300
      7 C4          5.9140   10.4500   -4.8370 cd        1 3TU      0.218200
      8 C5          4.9160    9.4550   -4.8400 cc        1 3TU     -0.233400
      9 C6          3.8400    9.5730   -3.8680 c         1 3TU      0.740700
     10 O6          2.7480    8.9850   -3.8430 o         1 3TU     -0.605500
     11 CA          2.5890    0.1880    0.1210 c3        1 3TU     -0.016300
     12 CB          2.3360    0.2460    1.6300 c3        1 3TU     -0.054400
     13 CD          3.5640    0.4430    3.8670 c         1 3TU      0.904600
     14 CG          3.5110    0.8270    2.3840 c3        1 3TU     -0.177400
     15 NAA         5.2150   12.4170   -1.8800 nh        1 3TU     -0.890800
     16 OAD         1.0950    2.8730    0.4990 o         1 3TU     -0.622500
     17 CAH         5.7570    7.0980   -8.2430 ca        1 3TU     -0.128000
     18 CAI         2.0340    5.2870   -3.1600 ca        1 3TU     -0.196000
     19 CAJ         4.7650    6.6210   -7.3750 ca        1 3TU     -0.123000
     20 CAK         1.6030    4.6810   -1.9730 ca        1 3TU     -0.056000
     21 CAL         6.4780    8.2380   -7.9270 ca        1 3TU     -0.106000
     22 CAM         3.4800    3.3730   -3.6440 ca        1 3TU     -0.178000
     23 CAP         3.4920    6.6890   -5.1990 c3        1 3TU      0.200100
     24 CAQ         3.4210    1.4840   -1.8230 c3        1 3TU      0.084300
     25 NAT         3.3690    5.2410   -5.2320 nh        1 3TU     -0.704600
     26 SAU         6.9460   10.3160   -6.1760 ss        1 3TU      0.055500
     27 CAX         1.8780    2.5770   -0.4160 c         1 3TU      0.704100
     28 CAZ         2.9690    4.6510   -4.0010 ca        1 3TU      0.100600
     29 CBB         3.0480    2.7920   -2.4710 ca        1 3TU     -0.040300
     30 CBC         4.4540    7.2800   -6.1880 ca        1 3TU     -0.036300
     31 CBD         2.1160    3.4500   -1.6270 ca        1 3TU     -0.167600
     32 CBE         6.1570    8.9360   -6.7620 ca        1 3TU     -0.098100
     33 CBH         5.0960    8.5060   -5.9110 ca        1 3TU     -0.000800
     34 OE1         3.7700    1.3660    4.7160 o         1 3TU     -0.875300
     35 OE2         3.4670   -0.7740    4.2080 o         1 3TU     -0.875300
     36 OXT         0.4870   -1.0660   -0.0850 o         1 3TU     -0.845800
     37 HN1         3.3480   10.6180   -2.1410 hn        1 3TU      0.339500
     38 HA          3.5870   -0.3300   -0.0300 h1        1 3TU      0.035700
     39 HB          1.4060    0.8340    1.8390 hc        1 3TU      0.067700
     40 HBA         2.1520   -0.8090    1.9700 hc        1 3TU      0.067700
     41 HG          3.4960    1.9440    2.3030 hc        1 3TU      0.013700
     42 HGA         4.4700    0.4690    1.9260 hc        1 3TU      0.013700
     43 HNAA        4.8910   12.1370   -0.9810 hn        1 3TU      0.417800
     44 HNAB        6.0810   12.9130   -1.8600 hn        1 3TU      0.417800
     45 HAH         5.9750    6.5470   -9.1700 ha        1 3TU      0.130000
     46 HAI         1.6320    6.2760   -3.4270 ha        1 3TU      0.128000
     47 HAJ         4.2280    5.6980   -7.6530 ha        1 3TU      0.153000
     48 HAK         0.8720    5.1850   -1.3230 ha        1 3TU      0.141000
     49 HAL         7.2910    8.5910   -8.5770 ha        1 3TU      0.129000
     50 HAM         4.2010    2.8540   -4.2910 ha        1 3TU      0.123000
     51 HAP         2.4650    7.1190   -5.3990 h1        1 3TU      0.070200
     52 HAPA        3.8000    7.0360   -4.1660 h1        1 3TU      0.070200
     53 HAQ         3.0610    0.5990   -2.4320 h1        1 3TU      0.091700
     54 HAQA        4.5310    1.4080   -1.6730 h1        1 3TU      0.091700
     55 HNAT        4.2080    4.8080   -5.5720 hn        1 3TU      0.365800
@<TRIPOS>BOND
     1    1    3 1   
     2    1   11 1   
     3    1   36 1   
     4    2   11 1   
     5    2   24 1   
     6    2   27 1   
     7    4    5 1   
     8    4    9 1   
     9    4   37 1   
    10    5    6 2   
    11    5   15 1   
    12    6    7 1   
    13    7    8 2   
    14    7   26 1   
    15    8    9 1   
    16    8   33 1   
    17    9   10 2   
    18   11   12 1   
    19   11   38 1   
    20   12   14 1   
    21   12   39 1   
    22   12   40 1   
    23   13   14 1   
    24   13   34 1   
    25   13   35 1   
    26   14   41 1   
    27   14   42 1   
    28   15   43 1   
    29   15   44 1   
    30   16   27 2   
    31   17   19 ar  
    32   17   21 ar  
    33   17   45 1   
    34   18   20 ar  
    35   18   28 ar  
    36   18   46 1   
    37   19   30 ar  
    38   19   47 1   
    39   20   31 ar  
    40   20   48 1   
    41   21   32 ar  
    42   21   49 1   
    43   22   28 ar  
    44   22   29 ar  
    45   22   50 1   
    46   23   25 1   
    47   23   30 1   
    48   23   51 1   
    49   23   52 1   
    50   24   29 1   
    51   24   53 1   
    52   24   54 1   
    53   25   28 1   
    54   25   55 1   
    55   26   32 1   
    56   27   31 1   
    57   29   31 ar  
    58   30   33 ar  
    59   32   33 ar  
@<TRIPOS>SUBSTRUCTURE
     1 3TU         1 TEMP              0 ****  ****    0 ROOT
