@<TRIPOS>MOLECULE
3TV
   28    28     1     0     0
SMALL
bcc


@<TRIPOS>ATOM
      1 F18          0.0000     0.0000     0.0000 f          1 3TV      -0.071900
      2 C7           1.3510     0.0000     0.0000 ca         1 3TV       0.148400
      3 C6           2.0440     0.0000     1.1980 ca         1 3TV       0.185400
      4 F17          1.3680     0.0000     2.3690 f          1 3TV      -0.082900
      5 C8           2.0480    -0.0060    -1.2040 ca         1 3TV       0.063900
      6 S11          1.1690    -0.0130    -2.7320 ss         1 3TV      -0.292000
      7 C12          0.9670     1.7530    -3.0930 c3         1 3TV       0.107700
      8 C13          0.2100     1.9200    -4.4120 c3         1 3TV      -0.009400
      9 C14          0.0390     3.4100    -4.7180 c3         1 3TV       0.010900
     10 C9           3.4380    -0.0070    -1.1990 ca         1 3TV       0.148400
     11 F15          4.1170    -0.0120    -2.3670 f          1 3TV      -0.071900
     12 C10          4.1250    -0.0020     0.0030 ca         1 3TV       0.185400
     13 F16          5.4760    -0.0020     0.0080 f          1 3TV      -0.082900
     14 C5           3.4290    -0.0010     1.2000 ca         1 3TV      -0.257500
     15 S1           4.3070     0.0000     2.7280 sy         1 3TV       0.957200
     16 O3           5.5900     0.5430     2.4530 o          1 3TV      -0.469800
     17 O4           3.4240     0.5450     3.6980 o          1 3TV      -0.469800
     18 N2           4.5500    -1.5820     3.1530 nz         1 3TV      -0.132500
     19 H1           1.9420     2.2190    -3.1750 h1         1 3TV       0.041700
     20 H2           0.4080     2.2240    -2.2940 h1         1 3TV       0.041700
     21 H3           0.7700     1.4490    -5.2120 hc         1 3TV       0.032700
     22 H4          -0.7640     1.4540    -4.3310 hc         1 3TV       0.032700
     23 H5          -0.5000     3.5280    -5.6500 hc         1 3TV       0.010700
     24 H6           1.0140     3.8750    -4.8030 hc         1 3TV       0.010700
     25 H7          -0.5170     3.8810    -3.9170 hc         1 3TV       0.010700
     26 H8           4.9120    -2.0870     2.3680 hn         1 3TV       0.318133
     27 H9           3.6810    -1.9880     3.4380 hn         1 3TV       0.318133
     28 H23          5.2040    -1.6280     3.9100 hn         1 3TV       0.318133
@<TRIPOS>BOND
     1     1     2 1   
     2     2     3 ar  
     3     2     5 ar  
     4     3     4 1   
     5     3    14 ar  
     6     5     6 1   
     7     5    10 ar  
     8     6     7 1   
     9     7     8 1   
    10     7    19 1   
    11     7    20 1   
    12     8     9 1   
    13     8    21 1   
    14     8    22 1   
    15     9    23 1   
    16     9    24 1   
    17     9    25 1   
    18    10    11 1   
    19    10    12 ar  
    20    12    13 1   
    21    12    14 ar  
    22    14    15 1   
    23    15    16 2   
    24    15    17 2   
    25    15    18 1   
    26    18    26 1   
    27    18    27 1   
    28    18    28 1   
@<TRIPOS>SUBSTRUCTURE
     1 3TV         1 TEMP              0 ****  ****    0 ROOT
