@<TRIPOS>MOLECULE
molecule
   28    28     1     0     0
SMALL
bcc


@<TRIPOS>ATOM
      1 F18          0.0000     0.0000     0.0000 f          1 3TV      -0.068900
      2 C7           1.3510     0.0000     0.0000 ca         1 3TV       0.150900
      3 C6           2.0440     0.0000     1.1980 ca         1 3TV       0.183900
      4 F17          1.3680     0.0000     2.3690 f          1 3TV      -0.086400
      5 C8           2.0480    -0.0060    -1.2040 ca         1 3TV       0.037900
      6 S11          1.1690    -0.0130    -2.7320 ss         1 3TV      -0.211000
      7 C12          0.9670     1.7530    -3.0930 c3         1 3TV       0.007700
      8 C13          0.2100     1.9200    -4.4120 c3         1 3TV      -0.071400
      9 C14          0.0390     3.4100    -4.7180 c3         1 3TV      -0.088100
     10 C9           3.4380    -0.0070    -1.1990 ca         1 3TV       0.150900
     11 F15          4.1170    -0.0120    -2.3670 f          1 3TV      -0.068900
     12 C10          4.1250    -0.0020     0.0030 ca         1 3TV       0.183900
     13 F16          5.4760    -0.0020     0.0080 f          1 3TV      -0.086400
     14 C5           3.4290    -0.0010     1.2000 ca         1 3TV      -0.389500
     15 S1           4.3070     0.0000     2.7280 sy         1 3TV       1.253200
     16 O3           5.5900     0.5430     2.4530 o          1 3TV      -0.490800
     17 O4           3.4240     0.5450     3.6980 o          1 3TV      -0.490800
     18 N2           4.5500    -1.5820     3.1530 nz         1 3TV      -0.810500
     19 H1           1.9420     2.2190    -3.1750 h1         1 3TV       0.069700
     20 H2           0.4080     2.2240    -2.2940 h1         1 3TV       0.069700
     21 H3           0.7700     1.4490    -5.2120 hc         1 3TV       0.061700
     22 H4          -0.7640     1.4540    -4.3310 hc         1 3TV       0.061700
     23 H5          -0.5000     3.5280    -5.6500 hc         1 3TV       0.045367
     24 H6           1.0140     3.8750    -4.8030 hc         1 3TV       0.045367
     25 H7          -0.5170     3.8810    -3.9170 hc         1 3TV       0.045367
     26 H8           4.9120    -2.0870     2.3680 hn         1 3TV       0.496800
     27 H9           3.6810    -1.9880     3.4380 hn         1 3TV       0.496800
     28 H23          5.2040    -1.6280     3.9100 hn         1 3TV       0.496800
@<TRIPOS>BOND
     1     9     8 1   
     2     8     7 1   
     3     6     7 1   
     4     6     5 1   
     5     1     2 1   
     6     5     2 ar  
     7     5    10 ar  
     8     2     3 ar  
     9    11    10 1   
    10    10    12 ar  
    11     3     4 1   
    12     3    14 ar  
    13    12    14 ar  
    14    12    13 1   
    15    14    15 1   
    16    18    15 1   
    17    15    17 2   
    18    15    16 2   
    19     7    19 1   
    20     7    20 1   
    21     8    21 1   
    22     8    22 1   
    23     9    23 1   
    24     9    24 1   
    25     9    25 1   
    26    18    26 1   
    27    18    27 1   
    28    28    18 1   
@<TRIPOS>SUBSTRUCTURE
     1 3TV         1 TEMP              0 ****  ****    0 ROOT
