@<TRIPOS>MOLECULE
molecule
   45    48     1     0     0
SMALL
bcc


@<TRIPOS>ATOM
      1 OAB          0.0000     0.0000     0.0000 oh         1 3TW      -0.518100
      2 CAT          1.3590     0.0000     0.0000 ca         1 3TW       0.105100
      3 CAC          2.0540     0.0000     1.2020 ca         1 3TW      -0.136000
      4 CAE          3.4340     0.0000     1.2010 ca         1 3TW      -0.118500
      5 CAD          2.0520    -0.0050    -1.2020 ca         1 3TW      -0.136000
      6 CAF          3.4340    -0.0050    -1.2030 ca         1 3TW      -0.118500
      7 CAV          4.1280     0.0000    -0.0010 ca         1 3TW       0.009800
      8 NBA          5.5320     0.0000    -0.0020 na         1 3TW       0.143300
      9 CAL          6.3410     0.0050     1.0840 cc         1 3TW      -0.175600
     10 NAP          6.3680    -0.0110    -1.1270 nd         1 3TW      -0.181800
     11 NAO          7.5910    -0.0070    -0.7210 nc         1 3TW      -0.325000
     12 CAX          7.6220     0.0030     0.6200 cc         1 3TW       0.197300
     13 CAW          8.8460     0.0110     1.4560 ca         1 3TW       0.414300
     14 NAQ          8.7280     0.0160     2.7700 nb         1 3TW      -0.689000
     15 CAH         10.1030     0.0080     0.8330 ca         1 3TW      -0.215300
     16 CAI         11.2370     0.0150     1.5900 ca         1 3TW      -0.090000
     17 CAY         11.1010     0.0250     2.9930 ca         1 3TW      -0.117300
     18 CAK         12.2260     0.0320     3.8310 ca         1 3TW      -0.156000
     19 CAZ          9.8040     0.0180     3.5630 ca         1 3TW       0.392600
     20 CAJ          9.6690     0.0290     4.9630 ca         1 3TW      -0.129300
     21 CAG         10.7790     0.0450     5.7490 ca         1 3TW      -0.197000
     22 CAU         12.0590     0.0420     5.1880 ca         1 3TW       0.143100
     23 OAS         13.1490     0.0580     5.9980 os         1 3TW      -0.316900
     24 CAN         12.9090     0.0790     7.4070 c3         1 3TW       0.140400
     25 CAM         14.2450     0.0950     8.1520 c3         1 3TW       0.139400
     26 OAR         14.9340     1.3160     7.8680 os         1 3TW      -0.419600
     27 CAA         16.2000     1.4320     8.5190 c3         1 3TW       0.128700
     28 H1          -0.3140     0.8890    -0.0010 ho         1 3TW       0.423000
     29 H2           1.5130    -0.0000     2.1400 ha         1 3TW       0.151000
     30 H3           3.9760     0.0020     2.1390 ha         1 3TW       0.154000
     31 H4           1.5100    -0.0090    -2.1400 ha         1 3TW       0.151000
     32 H5           3.9750    -0.0070    -2.1420 ha         1 3TW       0.154000
     33 H6           6.0290     0.0120     2.1220 h4         1 3TW       0.201000
     34 H7          10.1730    -0.0630    -0.2460 ha         1 3TW       0.158000
     35 H8          12.2160     0.0120     1.1250 ha         1 3TW       0.145000
     36 H9          13.2230     0.0300     3.4050 ha         1 3TW       0.150000
     37 H10          8.6840     0.0310     5.4140 ha         1 3TW       0.147000
     38 H11         10.6690     0.0530     6.8260 ha         1 3TW       0.137000
     39 H12         12.3420     0.9660     7.6640 h1         1 3TW       0.045200
     40 H13         12.3480    -0.8030     7.6910 h1         1 3TW       0.045200
     41 H14         14.0650     0.0220     9.2180 h1         1 3TW       0.037200
     42 H15         14.8490    -0.7440     7.8290 h1         1 3TW       0.037200
     43 H16         16.0600     1.3860     9.5920 h1         1 3TW       0.031367
     44 H17         16.8450     0.6210     8.2030 h1         1 3TW       0.031367
     45 H18         16.6560     2.3790     8.2550 h1         1 3TW       0.031367
@<TRIPOS>BOND
     1    27    26 1
     2    26    25 1
     3    25    24 1
     4    23    24 1
     5    23    22 1
     6    21    22 ar
     7    21    20 ar
     8    22    18 ar
     9    20    19 ar
    10    18    17 ar
    11    19    17 ar
    12    19    14 ar
    13    17    16 ar
    14    14    13 ar
    15    16    15 ar
    16    13    15 ar
    17    13    12 1
    18    11    12 1
    19    11    10 2
    20    12     9 2
    21    10     8 1
    22     9     8 1
    23     8     7 1
    24     7     6 ar
    25     7     4 ar
    26     6     5 ar
    27     4     3 ar
    28     5     2 ar
    29     3     2 ar
    30     2     1 1
    31     1    28 1
    32     3    29 1
    33     4    30 1
    34     5    31 1
    35     6    32 1
    36     9    33 1
    37    15    34 1
    38    16    35 1
    39    18    36 1
    40    20    37 1
    41    21    38 1
    42    24    39 1
    43    24    40 1
    44    25    41 1
    45    25    42 1
    46    27    43 1
    47    27    44 1
    48    27    45 1
@<TRIPOS>SUBSTRUCTURE
     1 3TW         1 TEMP              0 ****  ****    0 ROOT
