@<TRIPOS>MOLECULE
3TW
   45    48     1     0     0
SMALL
bcc


@<TRIPOS>ATOM
      1 OAB        -0.0850    0.1000   -0.3660 oh        1 3TW     -0.490100
      2 CAT         1.2830    0.1230   -0.2330 ca        1 3TW      0.129100
      3 CAC         1.9280    0.6580    0.8900 ca        1 3TW     -0.173500
      4 CAE         3.3170    0.6490    0.9580 ca        1 3TW     -0.090000
      5 CAD         2.0260   -0.4250   -1.2920 ca        1 3TW     -0.173500
      6 CAF         3.4120   -0.4420   -1.2220 ca        1 3TW     -0.090000
      7 CAV         4.0720    0.0920   -0.0940 ca        1 3TW     -0.024200
      8 NBA         5.4910    0.0730   -0.0140 na        1 3TW      0.117300
      9 CAL         6.2380    0.0220    1.1720 cc        1 3TW     -0.163600
     10 NAP         6.3380    0.1140   -1.0830 nc        1 3TW     -0.155800
     11 NAO         7.5390    0.0950   -0.6860 nd        1 3TW     -0.339000
     12 CAX         7.5790    0.0370    0.7340 cd        1 3TW      0.189300
     13 CAW         8.7900    0.0020    1.5430 ca        1 3TW      0.408300
     14 NAQ         8.6530   -0.0440    2.8700 nb        1 3TW     -0.668000
     15 CAH        10.0690    0.0170    0.8840 ca        1 3TW     -0.210300
     16 CAI        11.2070   -0.0160    1.6460 ca        1 3TW     -0.095000
     17 CAY        11.1050   -0.0660    3.0670 ca        1 3TW     -0.113300
     18 CAK        12.2470   -0.0990    3.8970 ca        1 3TW     -0.152000
     19 CAZ         9.7960   -0.0780    3.6400 ca        1 3TW      0.372600
     20 CAJ         9.6820   -0.1280    5.0680 ca        1 3TW     -0.135300
     21 CAG        10.8000   -0.1630    5.8610 ca        1 3TW     -0.180000
     22 CAU        12.0930   -0.1490    5.2740 ca        1 3TW      0.128100
     23 OAS        13.2670   -0.2090    5.9990 os        1 3TW     -0.331900
     24 CAN        13.1400   -0.0640    7.4190 c3        1 3TW      0.125400
     25 CAM        14.5670    0.0380    7.9490 c3        1 3TW      0.122400
     26 OAR        14.7380    1.3840    8.3870 os        1 3TW     -0.423600
     27 CAA        16.0780    1.6750    8.7470 c3        1 3TW      0.116700
     28 H1         -0.4700    0.5140    0.4200 ho        1 3TW      0.423000
     29 H2          1.3430    1.0910    1.7140 ha        1 3TW      0.151000
     30 H3          3.8140    1.0850    1.8390 ha        1 3TW      0.154500
     31 H4          1.5000   -0.8360   -2.1670 ha        1 3TW      0.151000
     32 H5          3.9860   -0.8720   -2.0590 ha        1 3TW      0.154500
     33 H6          5.8030   -0.0290    2.1690 h4        1 3TW      0.207000
     34 H7         10.1170    0.0550   -0.2140 ha        1 3TW      0.165000
     35 H8         12.2050   -0.0050    1.1840 ha        1 3TW      0.143000
     36 H9         13.2520   -0.0870    3.4500 ha        1 3TW      0.152000
     37 H10         8.6790   -0.1380    5.5230 ha        1 3TW      0.149000
     38 H11        10.6930   -0.2050    6.9550 ha        1 3TW      0.141000
     39 H12        12.6300   -0.9710    7.8340 h1        1 3TW      0.056200
     40 H13        12.5560    0.8610    7.6650 h1        1 3TW      0.056200
     41 H14        15.3110   -0.2090    7.1460 h1        1 3TW      0.046700
     42 H15        14.7090   -0.6540    8.8210 h1        1 3TW      0.046700
     43 H16        16.7590    1.5480    7.8690 h1        1 3TW      0.034700
     44 H17        16.4120    1.0160    9.5860 h1        1 3TW      0.034700
     45 H18        16.0530    2.7450    9.0730 h1        1 3TW      0.034700
@<TRIPOS>BOND
     1    1    2 1   
     2    1   28 1   
     3    2    3 ar  
     4    2    5 ar  
     5    3    4 ar  
     6    3   29 1   
     7    4    7 ar  
     8    4   30 1   
     9    5    6 ar  
    10    5   31 1   
    11    6    7 ar  
    12    6   32 1   
    13    7    8 1   
    14    8    9 1   
    15    8   10 1   
    16    9   12 2   
    17    9   33 1   
    18   10   11 2   
    19   11   12 1   
    20   12   13 1   
    21   13   14 ar  
    22   13   15 ar  
    23   14   19 ar  
    24   15   16 ar  
    25   15   34 1   
    26   16   17 ar  
    27   16   35 1   
    28   17   18 ar  
    29   17   19 ar  
    30   18   22 ar  
    31   18   36 1   
    32   19   20 ar  
    33   20   21 ar  
    34   20   37 1   
    35   21   22 ar  
    36   21   38 1   
    37   22   23 1   
    38   23   24 1   
    39   24   25 1   
    40   24   39 1   
    41   24   40 1   
    42   25   26 1   
    43   25   41 1   
    44   25   42 1   
    45   26   27 1   
    46   27   43 1   
    47   27   44 1   
    48   27   45 1   
@<TRIPOS>SUBSTRUCTURE
     1 3TW         1 TEMP              0 ****  ****    0 ROOT
