@<TRIPOS>MOLECULE
3TX
   34    37     1     0     0
SMALL
bcc


@<TRIPOS>ATOM
      1 OAA        -0.0640   -0.0530    0.2740 oh        1 3TX     -0.490100
      2 CAP         1.3030    0.0180    0.1550 ca        1 3TX      0.129100
      3 CAD         2.0530   -0.4260    1.2570 ca        1 3TX     -0.174000
      4 CAF         3.4390   -0.3890    1.2050 ca        1 3TX     -0.090000
      5 CAE         1.9420    0.5040   -0.9940 ca        1 3TX     -0.174000
      6 CAG         3.3300    0.5490   -1.0440 ca        1 3TX     -0.090000
      7 CAS         4.0930    0.0950    0.0510 ca        1 3TX     -0.025200
      8 NAV         5.5130    0.1310   -0.0120 na        1 3TX      0.117300
      9 CAL         6.2780    0.0320   -1.1820 cc        1 3TX     -0.160600
     10 NAN         6.3420    0.2790    1.0630 nc        1 3TX     -0.155800
     11 NAM         7.5480    0.2830    0.6820 nd        1 3TX     -0.338000
     12 CAR         7.6110    0.1320   -0.7300 cd        1 3TX      0.185300
     13 CAQ         8.8330    0.0930   -1.5220 ca        1 3TX      0.419300
     14 CAH        10.1010    0.1910   -0.8510 ca        1 3TX     -0.219300
     15 NAO         8.7150   -0.0340   -2.8470 nb        1 3TX     -0.676000
     16 CAU         9.8670   -0.0730   -3.6010 ca        1 3TX      0.403600
     17 CAT        11.1660    0.0190   -3.0130 ca        1 3TX     -0.148300
     18 CAK        11.2490    0.1540   -1.5990 ca        1 3TX     -0.086000
     19 CAJ         9.7740   -0.2090   -5.0260 ca        1 3TX     -0.168300
     20 CAC        10.9110   -0.2490   -5.7920 ca        1 3TX     -0.123000
     21 CAB        12.1940   -0.1570   -5.2000 ca        1 3TX     -0.129000
     22 CAI        12.3180   -0.0260   -3.8390 ca        1 3TX     -0.109000
     23 H1         -0.4550    0.2900   -0.5430 ho        1 3TX      0.423000
     24 H2          1.5320   -0.8000    2.1510 ha        1 3TX      0.151500
     25 H3          4.0190   -0.7380    2.0750 ha        1 3TX      0.154500
     26 H4          1.3510    0.8560   -1.8520 ha        1 3TX      0.151500
     27 H5          3.8210    0.9460   -1.9470 ha        1 3TX      0.154500
     28 H6          5.8600   -0.1040   -2.1790 h4        1 3TX      0.208000
     29 H7         10.1340    0.2950    0.2430 ha        1 3TX      0.165000
     30 H8         12.2400    0.2260   -1.1270 ha        1 3TX      0.141000
     31 H9          8.7790   -0.2810   -5.4910 ha        1 3TX      0.147000
     32 H10        10.8390   -0.3530   -6.8860 ha        1 3TX      0.135000
     33 H11        13.0840   -0.1920   -5.8450 ha        1 3TX      0.135000
     34 H12        13.3090    0.0460   -3.3650 ha        1 3TX      0.135000
@<TRIPOS>BOND
     1    1    2 1   
     2    1   23 1   
     3    2    3 ar  
     4    2    5 ar  
     5    3    4 ar  
     6    3   24 1   
     7    4    7 ar  
     8    4   25 1   
     9    5    6 ar  
    10    5   26 1   
    11    6    7 ar  
    12    6   27 1   
    13    7    8 1   
    14    8    9 1   
    15    8   10 1   
    16    9   12 2   
    17    9   28 1   
    18   10   11 2   
    19   11   12 1   
    20   12   13 1   
    21   13   14 ar  
    22   13   15 ar  
    23   14   18 ar  
    24   14   29 1   
    25   15   16 ar  
    26   16   17 ar  
    27   16   19 ar  
    28   17   18 ar  
    29   17   22 ar  
    30   18   30 1   
    31   19   20 ar  
    32   19   31 1   
    33   20   21 ar  
    34   20   32 1   
    35   21   22 ar  
    36   21   33 1   
    37   22   34 1   
@<TRIPOS>SUBSTRUCTURE
     1 3TX         1 TEMP              0 ****  ****    0 ROOT
