@<TRIPOS>MOLECULE
molecule
   34    37     1     0     0
SMALL
bcc


@<TRIPOS>ATOM
      1 OAA          0.0000     0.0000     0.0000 oh         1 3TX      -0.518100
      2 CAP          1.3600     0.0000     0.0000 ca         1 3TX       0.106100
      3 CAD          2.0530     0.0000     1.2010 ca         1 3TX      -0.136000
      4 CAF          3.4330     0.0000     1.2020 ca         1 3TX      -0.118500
      5 CAE          2.0530    -0.0050    -1.2010 ca         1 3TX      -0.136000
      6 CAG          3.4330    -0.0050    -1.2020 ca         1 3TX      -0.118500
      7 CAS          4.1280     0.0010     0.0000 ca         1 3TX       0.007800
      8 NAV          5.5310     0.0010     0.0000 na         1 3TX       0.145300
      9 CAL          6.3400     0.0080    -1.0850 cc         1 3TX      -0.172600
     10 NAN          6.3680     0.0020     1.1250 nc         1 3TX      -0.181800
     11 NAM          7.5910     0.0030     0.7190 nd         1 3TX      -0.323000
     12 CAR          7.6210     0.0060    -0.6210 cd         1 3TX       0.193300
     13 CAQ          8.8440     0.0100    -1.4590 ca         1 3TX       0.428300
     14 CAH         10.1020     0.0080    -0.8350 ca         1 3TX      -0.226300
     15 NAO          8.7270     0.0110    -2.7730 nb         1 3TX      -0.698000
     16 CAU          9.8020     0.0150    -3.5660 ca         1 3TX       0.426600
     17 CAT         11.1000     0.0180    -2.9970 ca         1 3TX      -0.156300
     18 CAK         11.2350     0.0120    -1.5940 ca         1 3TX      -0.081000
     19 CAJ          9.6690     0.0150    -4.9650 ca         1 3TX      -0.167300
     20 CAC         10.7810     0.0180    -5.7500 ca         1 3TX      -0.118000
     21 CAB         12.0560     0.0210    -5.1870 ca         1 3TX      -0.128000
     22 CAI         12.2240     0.0220    -3.8360 ca         1 3TX      -0.108000
     23 H1          -0.3140     0.8890    -0.0020 ho         1 3TX       0.423000
     24 H2           1.5110    -0.0010     2.1390 ha         1 3TX       0.151000
     25 H3           3.9740     0.0020     2.1410 ha         1 3TX       0.153500
     26 H4           1.5110    -0.0100    -2.1390 ha         1 3TX       0.151000
     27 H5           3.9750    -0.0060    -2.1400 ha         1 3TX       0.153500
     28 H6           6.0290     0.0100    -2.1230 h4         1 3TX       0.202000
     29 H7          10.1720    -0.0790     0.2420 ha         1 3TX       0.159000
     30 H8          12.2140     0.0100    -1.1300 ha         1 3TX       0.143000
     31 H9           8.6850     0.0120    -5.4180 ha         1 3TX       0.145000
     32 H10         10.6740     0.0180    -6.8280 ha         1 3TX       0.133000
     33 H11         12.9250     0.0240    -5.8340 ha         1 3TX       0.131000
     34 H12         13.2210     0.0240    -3.4120 ha         1 3TX       0.134000
@<TRIPOS>BOND
     1     1     2 1
     2     2     5 ar
     3     2     3 ar
     4     5     6 ar
     5     3     4 ar
     6     6     7 ar
     7     4     7 ar
     8     7     8 1
     9     8    10 1
    10     8     9 1
    11    10    11 2
    12     9    12 2
    13    11    12 1
    14    12    13 1
    15    13    14 ar
    16    13    15 ar
    17    14    18 ar
    18    15    16 ar
    19    18    17 ar
    20    16    17 ar
    21    16    19 ar
    22    17    22 ar
    23    19    20 ar
    24    22    21 ar
    25    20    21 ar
    26     1    23 1
    27     3    24 1
    28     4    25 1
    29     5    26 1
    30     6    27 1
    31     9    28 1
    32    14    29 1
    33    18    30 1
    34    19    31 1
    35    20    32 1
    36    21    33 1
    37    22    34 1
@<TRIPOS>SUBSTRUCTURE
     1 3TX         1 TEMP              0 ****  ****    0 ROOT
