@<TRIPOS>MOLECULE
molecule
   55    58     1     0     0
SMALL
bcc


@<TRIPOS>ATOM
      1 C            0.0000     0.0000     0.0000 c          1 3TZ       0.886600
      2 N            1.9950     1.1960    -0.6900 ns         1 3TZ      -0.531900
      3 OXT         -0.6040     0.9040    -0.5270 o          1 3TZ      -0.768300
      4 N1           5.1760     9.5790    -0.5740 ns         1 3TZ      -0.463400
      5 C2           5.5710    10.8800    -0.4910 cc         1 3TZ       0.334800
      6 N3           5.7770    11.6040    -1.5650 nd         1 3TZ      -0.582300
      7 C4           5.6080    11.0960    -2.8040 cd         1 3TZ       0.203200
      8 C5           5.2080     9.7790    -2.9510 cc         1 3TZ      -0.201400
      9 C6           4.9870     9.0040    -1.7770 c          1 3TZ       0.731700
     10 O6           4.6380     7.8390    -1.8600 o          1 3TZ      -0.600500
     11 CA           1.5070     0.0000     0.0000 c3         1 3TZ       0.024700
     12 CB           2.0160     0.0000     1.4430 c3         1 3TZ      -0.083400
     13 CG           3.5410    -0.1260     1.4450 c3         1 3TZ      -0.172400
     14 NAA          5.7570    11.4460     0.7430 nz         1 3TZ      -0.697600
     15 CAH          4.9020     8.9450    -7.1050 ca         1 3TZ      -0.101000
     16 CAI          4.6020     7.9150    -6.2260 ca         1 3TZ      -0.128000
     17 CAJ          3.2100     3.5220    -4.7660 ca         1 3TZ      -0.224000
     18 CAK          3.4080     4.6640    -2.6490 ca         1 3TZ      -0.224000
     19 CAL          2.7510     2.3970    -4.1190 ca         1 3TZ      -0.044500
     20 CAM          2.9500     3.5420    -1.9970 ca         1 3TZ      -0.044500
     21 CAN          5.2820    10.1760    -6.6220 ca         1 3TZ      -0.111000
     22 CAQ          4.3520     6.9940    -3.9230 c3         1 3TZ       0.283100
     23 SAV          5.8190    11.8580    -4.3720 ss         1 3TZ      -0.020500
     24 CAY          2.1240     1.1940    -2.0330 c          1 3TZ       0.674700
     25 CBA          3.5400     4.6600    -4.0350 ca         1 3TZ       0.200600
     26 CBB          2.6170     2.3970    -2.7280 ca         1 3TZ      -0.170600
     27 CBD          4.6800     8.1200    -4.8700 ca         1 3TZ      -0.038300
     28 CBE          5.3680    10.4020    -5.2440 ca         1 3TZ      -0.017100
     29 CBG          5.0670     9.3740    -4.3590 ca         1 3TZ      -0.023800
     30 OE1          5.3590    -0.2280     3.1120 o          1 3TZ      -0.801300
     31 OE2          3.2630    -0.0350     3.7830 o          1 3TZ      -0.801300
     32 O           -0.6720    -1.0060     0.5810 o          1 3TZ      -0.768300
     33 HN           2.1960     2.0270    -0.1700 hn         1 3TZ       0.307500
     34 HN1          5.0260     9.0490     0.2620 hn         1 3TZ       0.334500
     35 HA           1.8680    -0.8850    -0.5100 h1         1 3TZ       0.086700
     36 HB           1.7300     0.9260     1.9270 hc         1 3TZ       0.065700
     37 HBA          1.5840    -0.8360     1.9790 hc         1 3TZ       0.065700
     38 HG           3.5020    -0.9710     0.7680 hc         1 3TZ       0.037700
     39 HGA          3.9680     0.7220     0.9230 hc         1 3TZ       0.037700
     40 HNAA         4.8990    11.4150     1.2570 hn         1 3TZ       0.451467
     41 HNAB         6.4620    10.9390     1.2400 hn         1 3TZ       0.451467
     42 HAH          4.8390     8.7790    -8.1740 ha         1 3TZ       0.139000
     43 HAI          4.3040     6.9470    -6.6100 ha         1 3TZ       0.149000
     44 HAJ          3.3140     3.5220    -5.8440 ha         1 3TZ       0.125000
     45 HAK          3.6660     5.5510    -2.0830 ha         1 3TZ       0.125000
     46 HAL          2.4940     1.5120    -4.6880 ha         1 3TZ       0.146000
     47 HAM          2.8470     3.5460    -0.9180 ha         1 3TZ       0.146000
     48 HAN          5.5150    10.9760    -7.3140 ha         1 3TZ       0.134000
     49 HAQ          3.5140     7.2800    -3.2990 h1         1 3TZ       0.080700
     50 HAQA         5.2130     6.7850    -3.2980 h1         1 3TZ       0.080700
     51 HNAT         4.1380     5.7810    -5.6820 hn         1 3TZ       0.428800
     52 CD           4.0440    -0.1270     2.8650 c          1 3TZ       0.903600
     53 OAD          1.8340     0.1990    -2.6700 o          1 3TZ      -0.623100
     54 HAA3         6.0370    12.4010     0.6340 hn         1 3TZ       0.451467
     55 NAT          4.0040     5.7960    -4.6910 nu         1 3TZ      -0.846600
@<TRIPOS>BOND
     1    32     1 1   
     2     1     3 1   
     3     1    11 1   
     4    11     2 1   
     5     2    24 1   
     6     2    33 1   
     7     5     4 1   
     8     4     9 1   
     9     4    34 1   
    10    14     5 1   
    11     5     6 2   
    12     6     7 1   
    13     7     8 2   
    14     7    23 1   
    15     9     8 1   
    16     8    29 1   
    17    10     9 2   
    18    12    11 1   
    19    11    35 1   
    20    13    12 1   
    21    12    36 1   
    22    12    37 1   
    23    31    52 1   
    24    52    13 1   
    25    52    30 1   
    26    13    38 1   
    27    13    39 1   
    28    14    40 1   
    29    14    41 1   
    30    24    53 2   
    31    21    15 ar  
    32    16    15 ar  
    33    15    42 1   
    34    27    16 ar  
    35    16    43 1   
    36    17    19 ar  
    37    17    25 ar  
    38    17    44 1   
    39    25    18 ar  
    40    18    20 ar  
    41    18    45 1   
    42    19    26 ar  
    43    19    46 1   
    44    26    20 ar  
    45    20    47 1   
    46    28    21 ar  
    47    21    48 1   
    48    55    22 1   
    49    22    27 1   
    50    22    49 1   
    51    22    50 1   
    52    55    25 1   
    53    55    51 1   
    54    23    28 1   
    55    26    24 1   
    56    29    27 ar  
    57    29    28 ar  
    58    54    14 1   
@<TRIPOS>SUBSTRUCTURE
     1 3TZ         1 TEMP              0 ****  ****    0 ROOT
