@<TRIPOS>MOLECULE
3TZ
   57    55     1     0     0
SMALL
bcc


@<TRIPOS>ATOM
      1 C           1.9710   -0.2080    0.4020 cu        1 3TZ      0.298000
      2 N           1.1470    2.6160   -2.5020 n         1 3TZ     -0.395000
      3 OXT         2.0170   -1.1830   -0.3010 o         1 3TZ     -0.180000
      4 N1          4.7110    6.6830   -1.1250 n2        1 3TZ     -0.256000
      5 C2          5.4330    7.3530   -0.1540 c2        1 3TZ      0.011000
      6 N3          6.3120    8.3710   -0.3050 n2        1 3TZ     -0.125000
      7 C4          6.4940    8.7680   -1.5990 c2        1 3TZ     -0.286000
      8 C5          5.8090    8.1710   -2.7160 c2        1 3TZ     -0.131000
      9 C6          4.9050    7.1030   -2.3980 c2        1 3TZ      0.266000
     10 O6          4.2320    6.5060   -3.4080 oh        1 3TZ     -0.218000
     11 CA          2.0770    0.7070    1.5280 cx        1 3TZ     -0.061000
     12 CB          3.3850    1.3310    1.9110 c3        1 3TZ     -0.239000
     13 CG          3.3320    2.5480    2.6690 c1        1 3TZ     -0.059000
     14 NAA         5.2040    6.8650    1.2350 n4        1 3TZ     -0.009000
     15 CAH         8.3610   11.7370   -4.7340 c1        1 3TZ      0.276000
     16 CAI         4.2570    8.7840   -5.5270 c3        1 3TZ     -0.183000
     17 CAJ         0.1710    3.0040   -6.1640 c2        1 3TZ     -0.092000
     18 CAK         2.0670    5.8940    0.7120 c1        1 3TZ     -0.238000
     19 CAL         1.0570    3.4270   -5.3060 c1        1 3TZ     -0.067000
     20 CAM         1.9190    6.4100    1.7830 c1        1 3TZ     -0.238000
     21 CAN         7.7150   10.5870   -4.7630 c2        1 3TZ     -0.453000
     22 CAQ         6.4340    7.7900   -6.1690 c2        1 3TZ     -0.193000
     23 SAV         7.5250    9.9860   -2.1110 ss        1 3TZ      0.705000
     24 CAY         1.8730    3.6580   -2.9940 c2        1 3TZ      0.360000
     25 CBA         0.2160    1.6730   -6.7980 c2        1 3TZ     -0.031000
     26 CBB         1.9520    3.8610   -4.4640 c2        1 3TZ     -0.171000
     27 CBD         5.6700    8.4100   -5.2620 c2        1 3TZ     -0.067000
     28 CBE         7.1250    9.7880   -3.7350 c2        1 3TZ     -0.253000
     29 CBG         6.1890    8.7790   -3.9500 c2        1 3TZ     -0.006000
     30 OE1         5.4750    2.7010    4.2000 o         1 3TZ     -0.308000
     31 OE2         5.1150    4.5760    2.7920 o         1 3TZ     -0.308000
     32 O           1.5650    1.0920    0.1870 os        1 3TZ     -0.291000
     33 HN          0.7170    1.9650   -3.1120 hn        1 3TZ      0.245500
     34 HN1         3.6330    5.8010   -3.0670 ho        1 3TZ      0.295000
     35 HA          1.1180    2.4470   -1.5240 hn        1 3TZ      0.245500
     36 HB          1.2930    0.7140    2.3130 h1        1 3TZ      0.165000
     37 HBA         3.9850    0.5920    2.5350 hc        1 3TZ      0.192000
     38 HG          2.3690    2.9610    2.9930 ha        1 3TZ      0.100000
     39 HGA         4.0170    1.5270    0.9900 hc        1 3TZ      0.192000
     40 HNAA        4.2440    6.4810    1.3280 hn        1 3TZ      0.277333
     41 HNAB        5.8730    6.1090    1.4370 hn        1 3TZ      0.277333
     42 HAH         4.1080    9.8810   -5.3720 hc        1 3TZ      0.092333
     43 HAI         3.5780    8.2320   -4.8290 hc        1 3TZ      0.092333
     44 HAJ        -0.1630    1.6890   -7.8450 h4        1 3TZ      0.114000
     45 HAK         2.1930    5.4410   -0.2510 ha        1 3TZ      0.244500
     46 HAL        -0.6790    3.6400   -6.4710 ha        1 3TZ      0.169000
     47 HAM         2.8410    4.4280   -4.7940 ha        1 3TZ      0.169000
     48 HAN         7.5880   10.1670   -5.7980 ha        1 3TZ      0.227000
     49 HAQ         0.6110   -0.2200   -6.6930 hn        1 3TZ      0.161000
     50 HAQA        7.4780    7.5110   -5.9750 ha        1 3TZ      0.127000
     51 HNAT        3.9660    8.5310   -6.5770 hc        1 3TZ      0.092333
     52 CD          5.1490    3.5530    3.4320 c1        1 3TZ      0.505000
     53 OAD         2.4810    4.4370   -2.2100 o         1 3TZ     -0.467000
     54 H2          1.7350    6.8570    2.7290 ha        1 3TZ      0.244500
     55 HAA3        5.3390    7.6270    1.9070 hn        1 3TZ      0.277333
     56 HAT2        6.0510    7.5160   -7.1610 ha        1 3TZ      0.127000
     57 NAT         0.6340    0.6350   -6.1760 n2        1 3TZ     -0.224000
@<TRIPOS>BOND
     1    1    3 1   
     2    1   11 1   
     3    1   32 1   
     4    2   24 1   
     5    2   33 1   
     6    2   35 1   
     7    4    5 1   
     8    4    9 1   
     9    5    6 1   
    10    5   14 1   
    11    6    7 1   
    12    7    8 1   
    13    7   23 1   
    14    8    9 1   
    15    8   29 1   
    16    9   10 1   
    17   10   34 1   
    18   11   12 1   
    19   11   32 1   
    20   11   36 1   
    21   12   13 1   
    22   12   37 1   
    23   12   39 1   
    24   13   38 1   
    25   14   40 1   
    26   14   41 1   
    27   14   55 1   
    28   15   21 1   
    29   16   27 1   
    30   16   42 1   
    31   16   43 1   
    32   16   51 1   
    33   17   19 1   
    34   17   25 1   
    35   17   46 1   
    36   18   20 1   
    37   18   45 1   
    38   19   26 1   
    39   20   54 1   
    40   21   28 1   
    41   21   48 1   
    42   22   27 1   
    43   22   50 1   
    44   22   56 1   
    45   23   28 1   
    46   24   26 1   
    47   24   53 1   
    48   25   44 1   
    49   25   57 1   
    50   26   47 1   
    51   27   29 1   
    52   28   29 1   
    53   30   52 1   
    54   31   52 1   
    55   49   57 1   
@<TRIPOS>SUBSTRUCTURE
     1 3TZ         1 TEMP              0 ****  ****    0 ROOT
