@<TRIPOS>MOLECULE
3U1
   53    58     1     0     0
SMALL
bcc


@<TRIPOS>ATOM
      1 F01          0.0000     0.0000     0.0000 f          1 3U1      -0.119900
      2 C02          1.3510     0.0000     0.0000 ca         1 3U1       0.150900
      3 C03          2.0440     0.0000     1.1950 ca         1 3U1      -0.152000
      4 C04          3.4280    -0.0010     1.1960 ca         1 3U1      -0.055000
      5 C05          4.1260    -0.0000     0.0020 ca         1 3U1      -0.152000
      6 C06          3.4450    -0.0000    -1.2000 ca         1 3U1       0.150900
      7 F07          4.1280    -0.0010    -2.3660 f          1 3U1      -0.119900
      8 C08          2.0490    -0.0070    -1.2080 cp         1 3U1      -0.089000
      9 C09          1.3110    -0.0070    -2.4950 cp         1 3U1      -0.085000
     10 C10          1.4140    -1.1050    -3.3580 ca         1 3U1      -0.033000
     11 C11          0.7430    -1.1220    -4.5440 ca         1 3U1      -0.122000
     12 C12         -0.0570    -0.0410    -4.9120 ca         1 3U1      -0.184200
     13 N13         -0.8330     0.2280    -6.0110 na         1 3U1       0.424900
     14 N14         -1.4290     1.4840    -5.8610 nc         1 3U1      -0.621100
     15 C15         -1.0660     2.0180    -4.7200 cd         1 3U1       0.329900
     16 C16         -1.4860     3.3400    -4.1990 ca         1 3U1       0.310700
     17 C17         -1.8920     4.3420    -5.0810 ca         1 3U1       0.264900
     18 N18         -2.2670     5.5190    -4.6150 nb         1 3U1      -0.516000
     19 C19         -2.2570     5.7520    -3.3150 ca         1 3U1       0.257900
     20 C20         -1.8540     4.7570    -2.4300 ca         1 3U1       0.504300
     21 O21         -1.8470     5.0000    -1.0940 os         1 3U1      -0.415100
     22 C22         -1.4200     3.9340    -0.2440 c3         1 3U1       0.213100
     23 C23          0.0950     4.0200    -0.0300 c3         1 3U1       0.120800
     24 N24          0.5130     2.9930     0.9310 n7         1 3U1      -0.576200
     25 C25         -0.0600     3.2340     2.2620 c3         1 3U1       0.143800
     26 C26         -1.5850     3.0980     2.1920 c3         1 3U1       0.026600
     27 C27         -2.1130     4.0530     1.1180 cx         1 3U1      -0.148000
     28 C28         -3.6030     4.3900     1.1320 cx         1 3U1      -0.070900
     29 C29         -2.5760     5.4400     1.5620 cx         1 3U1      -0.070900
     30 N30         -1.4820     3.5730    -2.8890 nb         1 3U1      -0.617000
     31 C31         -0.1670     1.0690    -4.0530 ca         1 3U1      -0.229900
     32 C32          0.5180     1.0780    -2.8390 ca         1 3U1       0.017000
     33 H1           1.5030    -0.0000     2.1340 ha         1 3U1       0.122500
     34 H2           3.9660    -0.0010     2.1360 ha         1 3U1       0.109000
     35 H3           5.2090    -0.0010     0.0100 ha         1 3U1       0.122500
     36 H4           2.0320    -1.9500    -3.0790 ha         1 3U1       0.108000
     37 H5           0.8310    -1.9770    -5.2030 ha         1 3U1       0.106000
     38 H6          -0.9530    -0.3800    -6.7970 hn         1 3U1       0.154700
     39 H7          -1.9010     4.1540    -6.1480 h4         1 3U1       0.008100
     40 H8          -2.5660     6.7190    -2.9370 h4         1 3U1       0.000100
     41 H9          -1.6680     2.9810    -0.6950 h1         1 3U1       0.060700
     42 H10          0.6010     3.8580    -0.9740 h1         1 3U1       0.016200
     43 H11          0.3480     5.0000     0.3570 h1         1 3U1       0.016200
     44 H12          1.5110     2.9820     0.9950 hn         1 3U1       0.252800
     45 H14          0.3340     2.5060     2.9610 h1         1 3U1       0.006200
     46 H15          0.1970     4.2340     2.5890 h1         1 3U1       0.006200
     47 H16         -2.0170     3.3570     3.1520 hc         1 3U1       0.024700
     48 H17         -1.8470     2.0790     1.9330 hc         1 3U1       0.024700
     49 H18         -4.0550     4.5490     0.1610 hc         1 3U1       0.049450
     50 H19         -4.1760     3.9410     1.9340 hc         1 3U1       0.049450
     51 H20         -2.5220     5.6320     2.6270 hc         1 3U1       0.049450
     52 H21         -2.4010     6.2400     0.8540 hc         1 3U1       0.049450
     53 H22          0.5430     1.9790    -2.2390 ha         1 3U1       0.124000
@<TRIPOS>BOND
     1     1     2 1   
     2     2     3 ar  
     3     2     8 ar  
     4     3     4 ar  
     5     3    33 1   
     6     4     5 ar  
     7     4    34 1   
     8     5     6 ar  
     9     5    35 1   
    10     6     7 1   
    11     6     8 ar  
    12     8     9 1   
    13     9    10 ar  
    14     9    32 ar  
    15    10    11 ar  
    16    10    36 1   
    17    11    12 ar  
    18    11    37 1   
    19    12    13 1   
    20    12    31 ar  
    21    13    14 1   
    22    13    38 1   
    23    14    15 2   
    24    15    16 1   
    25    15    31 1   
    26    16    17 ar  
    27    16    30 ar  
    28    17    18 ar  
    29    17    39 1   
    30    18    19 ar  
    31    19    20 ar  
    32    19    40 1   
    33    20    21 1   
    34    20    30 ar  
    35    21    22 1   
    36    22    23 1   
    37    22    27 1   
    38    22    41 1   
    39    23    24 1   
    40    23    42 1   
    41    23    43 1   
    42    24    25 1   
    43    24    44 1   
    44    25    26 1   
    45    25    45 1   
    46    25    46 1   
    47    26    27 1   
    48    26    47 1   
    49    26    48 1   
    50    27    28 1   
    51    27    29 1   
    52    28    29 1   
    53    28    49 1   
    54    28    50 1   
    55    29    51 1   
    56    29    52 1   
    57    31    32 ar  
    58    32    53 1   
@<TRIPOS>SUBSTRUCTURE
     1 3U1         1 TEMP              0 ****  ****    0 ROOT
