@<TRIPOS>MOLECULE
3U2
   38    39     1     0     0
SMALL
bcc


@<TRIPOS>ATOM
      1 CAK          0.0000     0.0000     0.0000 c3         1 3U2       0.005900
      2 CAB          1.5310     0.0000     0.0000 c3         1 3U2      -0.073700
      3 CAC          2.0400     0.0000     1.4430 c3         1 3U2       0.184100
      4 OAJ          1.5650    -1.1670     2.1160 oh         1 3U2      -0.573800
      5 CAD          3.5710    -0.0000     1.4420 c3         1 3U2       0.156100
      6 OAI          4.0480    -0.0010     2.7890 oh         1 3U2      -0.575800
      7 CAE          4.0800    -1.2490     0.7200 c3         1 3U2       0.186100
      8 OAH          5.5090    -1.2490     0.7200 oh         1 3U2      -0.587800
      9 CAF          3.5700    -1.2490    -0.7220 c3         1 3U2      -0.069400
     10 CAA          2.0400    -1.2490    -0.7220 c3         1 3U2       0.025700
     11 NAG          1.5510    -1.2490    -2.1030 ns         1 3U2      -0.193900
     12 CAL          1.4220    -2.4110    -2.7720 c          1 3U2       0.598700
     13 OAM          1.7120    -3.4600    -2.2300 o          1 3U2      -0.649100
     14 CAN          0.9290    -2.4110    -4.1660 ca         1 3U2      -0.156600
     15 CAO          0.7950    -3.6130    -4.8620 ca         1 3U2      -0.059500
     16 CAP          0.3330    -3.6070    -6.1620 ca         1 3U2      -0.111500
     17 CAQ          0.0050    -2.4110    -6.7760 ca         1 3U2      -0.078000
     18 CAR          0.1360    -1.2160    -6.0920 ca         1 3U2      -0.111500
     19 CAS          0.5910    -1.2090    -4.7890 ca         1 3U2      -0.059500
     20 H1          -0.3610     0.3810    -0.9480 hc         1 3U2       0.008367
     21 H2          -0.3610    -1.0110     0.1440 hc         1 3U2       0.008367
     22 H3          -0.3610     0.6300     0.8040 hc         1 3U2       0.008367
     23 H4           1.8960     0.8830    -0.5100 hc         1 3U2       0.030700
     24 H5           1.6810     0.8870     1.9500 h1         1 3U2       0.004700
     25 H6           1.2130    -0.9240     2.9560 ho         1 3U2       0.395000
     26 H7           3.9290     0.8830     0.9270 h1         1 3U2       0.011700
     27 H8           4.4630     0.8250     2.9760 ho         1 3U2       0.389000
     28 H9           3.7150    -2.1320     1.2300 h1         1 3U2       0.032700
     29 H10          5.8240    -2.0990     0.9800 ho         1 3U2       0.396000
     30 H11          3.9300    -0.3640    -1.2310 hc         1 3U2       0.031700
     31 H12          3.9290    -2.1360    -1.2300 hc         1 3U2       0.031700
     32 H13          1.6820    -2.1320    -0.2070 h1         1 3U2       0.079700
     33 H14          1.3400    -0.3840    -2.5590 hn         1 3U2       0.178500
     34 H15          1.0510    -4.5500    -4.3830 ha         1 3U2       0.114000
     35 H16          0.2280    -4.5390    -6.7030 ha         1 3U2       0.105500
     36 H17         -0.3550    -2.4110    -7.7980 ha         1 3U2       0.102000
     37 H18         -0.1250    -0.2830    -6.5780 ha         1 3U2       0.105500
     38 H19          0.6930    -0.2730    -4.2540 ha         1 3U2       0.114000
@<TRIPOS>BOND
     1     1     2 1   
     2     1    20 1   
     3     1    21 1   
     4     1    22 1   
     5     2     3 1   
     6     2    10 1   
     7     2    23 1   
     8     3     4 1   
     9     3     5 1   
    10     3    24 1   
    11     4    25 1   
    12     5     6 1   
    13     5     7 1   
    14     5    26 1   
    15     6    27 1   
    16     7     8 1   
    17     7     9 1   
    18     7    28 1   
    19     8    29 1   
    20     9    10 1   
    21     9    30 1   
    22     9    31 1   
    23    10    11 1   
    24    10    32 1   
    25    11    12 1   
    26    11    33 1   
    27    12    13 2   
    28    12    14 1   
    29    14    15 ar  
    30    14    19 ar  
    31    15    16 ar  
    32    15    34 1   
    33    16    17 ar  
    34    16    35 1   
    35    17    18 ar  
    36    17    36 1   
    37    18    19 ar  
    38    18    37 1   
    39    19    38 1   
@<TRIPOS>SUBSTRUCTURE
     1 3U2         1 TEMP              0 ****  ****    0 ROOT
