@<TRIPOS>MOLECULE
molecule
   38    39     1     0     0
SMALL
bcc


@<TRIPOS>ATOM
      1 CAK          0.0000     0.0000     0.0000 c3         1 3U2      -0.083100
      2 CAB          1.5310     0.0000     0.0000 c3         1 3U2      -0.091700
      3 CAC          2.0400     0.0000     1.4430 c3         1 3U2       0.143100
      4 OAJ          1.5650    -1.1670     2.1160 oh         1 3U2      -0.593800
      5 CAD          3.5710    -0.0000     1.4420 c3         1 3U2       0.125100
      6 OAI          4.0480    -0.0010     2.7890 oh         1 3U2      -0.596800
      7 CAE          4.0800    -1.2490     0.7200 c3         1 3U2       0.149100
      8 OAH          5.5090    -1.2490     0.7200 oh         1 3U2      -0.606800
      9 CAF          3.5700    -1.2490    -0.7220 c3         1 3U2      -0.115400
     10 CAA          2.0400    -1.2490    -0.7220 c3         1 3U2       0.125700
     11 NAG          1.5510    -1.2490    -2.1030 ns         1 3U2      -0.578900
     12 CAL          1.4220    -2.4110    -2.7720 c          1 3U2       0.674700
     13 OAM          1.7120    -3.4600    -2.2300 o          1 3U2      -0.609100
     14 CAN          0.9290    -2.4110    -4.1660 ca         1 3U2      -0.146600
     15 CAO          0.7950    -3.6130    -4.8620 ca         1 3U2      -0.086500
     16 CAP          0.3330    -3.6070    -6.1620 ca         1 3U2      -0.138500
     17 CAQ          0.0050    -2.4110    -6.7760 ca         1 3U2      -0.106000
     18 CAR          0.1360    -1.2160    -6.0920 ca         1 3U2      -0.138500
     19 CAS          0.5910    -1.2090    -4.7890 ca         1 3U2      -0.086500
     20 H1          -0.3610     0.3810    -0.9480 hc         1 3U2       0.040033
     21 H2          -0.3610    -1.0110     0.1440 hc         1 3U2       0.040033
     22 H3          -0.3610     0.6300     0.8040 hc         1 3U2       0.040033
     23 H4           1.8960     0.8830    -0.5100 hc         1 3U2       0.052700
     24 H5           1.6810     0.8870     1.9500 h1         1 3U2       0.039700
     25 H6           1.2130    -0.9240     2.9560 ho         1 3U2       0.409000
     26 H7           3.9290     0.8830     0.9270 h1         1 3U2       0.045700
     27 H8           4.4630     0.8250     2.9760 ho         1 3U2       0.403000
     28 H9           3.7150    -2.1320     1.2300 h1         1 3U2       0.066700
     29 H10          5.8240    -2.0990     0.9800 ho         1 3U2       0.409000
     30 H11          3.9300    -0.3640    -1.2310 hc         1 3U2       0.060200
     31 H12          3.9290    -2.1360    -1.2300 hc         1 3U2       0.060200
     32 H13          1.6820    -2.1320    -0.2070 h1         1 3U2       0.102700
     33 H14          1.3400    -0.3840    -2.5590 hn         1 3U2       0.312500
     34 H15          1.0510    -4.5500    -4.3830 ha         1 3U2       0.140500
     35 H16          0.2280    -4.5390    -6.7030 ha         1 3U2       0.134000
     36 H17         -0.3550    -2.4110    -7.7980 ha         1 3U2       0.132000
     37 H18         -0.1250    -0.2830    -6.5780 ha         1 3U2       0.134000
     38 H19          0.6930    -0.2730    -4.2540 ha         1 3U2       0.140500
@<TRIPOS>BOND
     1     4     3 1
     2     6     5 1
     3     7     9 1
     4     7     8 1
     5     7     5 1
     6     3     5 1
     7     3     2 1
     8     9    10 1
     9     1     2 1
    10     2    10 1
    11    10    11 1
    12    11    12 1
    13    13    12 2
    14    12    14 1
    15    14    15 ar
    16    14    19 ar
    17    15    16 ar
    18    19    18 ar
    19    16    17 ar
    20    18    17 ar
    21     1    20 1
    22     1    21 1
    23     1    22 1
    24     2    23 1
    25     3    24 1
    26     4    25 1
    27     5    26 1
    28     6    27 1
    29     7    28 1
    30     8    29 1
    31     9    30 1
    32     9    31 1
    33    10    32 1
    34    11    33 1
    35    15    34 1
    36    16    35 1
    37    17    36 1
    38    18    37 1
    39    19    38 1
@<TRIPOS>SUBSTRUCTURE
     1 3U2         1 TEMP              0 ****  ****    0 ROOT
