@<TRIPOS>MOLECULE
molecule
   31    31     1     0     0
SMALL
bcc


@<TRIPOS>ATOM
      1 CAK          0.0000     0.0000     0.0000 c3         1 3U3      -0.083100
      2 CAB          1.5300     0.0000     0.0000 c3         1 3U3      -0.091700
      3 CAC          2.0410     0.0000     1.4420 c3         1 3U3       0.143100
      4 OAJ          1.5640    -1.1660     2.1160 oh         1 3U3      -0.593800
      5 CAD          3.5710    -0.0000     1.4420 c3         1 3U3       0.130100
      6 OAI          4.0470     0.0010     2.7880 oh         1 3U3      -0.594800
      7 CAE          4.0800    -1.2500     0.7210 c3         1 3U3       0.148100
      8 OAH          5.5090    -1.2500     0.7210 oh         1 3U3      -0.606800
      9 CAF          3.5690    -1.2500    -0.7220 c3         1 3U3      -0.119400
     10 CAA          2.0400    -1.2500    -0.7210 c3         1 3U3       0.124700
     11 NAG          1.5510    -1.2500    -2.1030 ns         1 3U3      -0.585900
     12 CAL          1.4220    -2.4130    -2.7710 c          1 3U3       0.657100
     13 OAM          1.7110    -3.4590    -2.2300 o          1 3U3      -0.608100
     14 CAN          0.9200    -2.4130    -4.1920 c3         1 3U3      -0.172100
     15 H1          -0.3610     0.6380     0.7980 hc         1 3U3       0.039367
     16 H2          -0.3610     0.3720    -0.9510 hc         1 3U3       0.039367
     17 H3          -0.3610    -1.0100     0.1530 hc         1 3U3       0.039367
     18 H4           1.8960     0.8830    -0.5100 hc         1 3U3       0.052700
     19 H5           1.6820     0.8870     1.9500 h1         1 3U3       0.039700
     20 H6           1.2090    -0.9210     2.9550 ho         1 3U3       0.409000
     21 H7           3.9290     0.8830     0.9270 h1         1 3U3       0.044700
     22 H8           4.4700     0.8240     2.9720 ho         1 3U3       0.403000
     23 H9           3.7140    -2.1330     1.2310 h1         1 3U3       0.067700
     24 H10          5.8230    -2.1290     0.8530 ho         1 3U3       0.408000
     25 H11          3.9290    -2.1360    -1.2300 hc         1 3U3       0.058700
     26 H12          3.9290    -0.3640    -1.2310 hc         1 3U3       0.058700
     27 H13          1.6810    -2.1320    -0.2060 h1         1 3U3       0.102700
     28 H14          1.3470    -0.3850    -2.5610 hn         1 3U3       0.310500
     29 H15          0.9370    -3.4240    -4.5810 hc         1 3U3       0.060033
     30 H16          1.5550    -1.7810    -4.8000 hc         1 3U3       0.060033
     31 H17         -0.0950    -2.0350    -4.2170 hc         1 3U3       0.060033
@<TRIPOS>BOND
     1     4     3 1
     2     6     5 1
     3     7     8 1
     4     7     5 1
     5     7     9 1
     6     3     5 1
     7     3     2 1
     8     9    10 1
     9     1     2 1
    10     2    10 1
    11    10    11 1
    12    13    12 2
    13    11    12 1
    14    12    14 1
    15     1    15 1
    16     1    16 1
    17     1    17 1
    18     2    18 1
    19     3    19 1
    20     4    20 1
    21     5    21 1
    22     6    22 1
    23     7    23 1
    24     8    24 1
    25     9    25 1
    26     9    26 1
    27    10    27 1
    28    11    28 1
    29    14    29 1
    30    14    30 1
    31    14    31 1
@<TRIPOS>SUBSTRUCTURE
     1 3U3         1 TEMP              0 ****  ****    0 ROOT
