@<TRIPOS>MOLECULE
3U3
   31    31     1     0     0
SMALL
bcc


@<TRIPOS>ATOM
      1 CAK          0.0000     0.0000     0.0000 c3         1 3U3       0.006900
      2 CAB          1.5300     0.0000     0.0000 c3         1 3U3      -0.073700
      3 CAC          2.0410     0.0000     1.4420 c3         1 3U3       0.184100
      4 OAJ          1.5640    -1.1660     2.1160 oh         1 3U3      -0.573800
      5 CAD          3.5710    -0.0000     1.4420 c3         1 3U3       0.160100
      6 OAI          4.0470     0.0010     2.7880 oh         1 3U3      -0.574800
      7 CAE          4.0800    -1.2500     0.7210 c3         1 3U3       0.186100
      8 OAH          5.5090    -1.2500     0.7210 oh         1 3U3      -0.587800
      9 CAF          3.5690    -1.2500    -0.7220 c3         1 3U3      -0.072400
     10 CAA          2.0400    -1.2500    -0.7210 c3         1 3U3       0.026700
     11 NAG          1.5510    -1.2500    -2.1030 ns         1 3U3      -0.197900
     12 CAL          1.4220    -2.4130    -2.7710 c          1 3U3       0.572100
     13 OAM          1.7110    -3.4590    -2.2300 o          1 3U3      -0.646100
     14 CAN          0.9200    -2.4130    -4.1920 c3         1 3U3      -0.068100
     15 H1          -0.3610     0.6380     0.7980 hc         1 3U3       0.007700
     16 H2          -0.3610     0.3720    -0.9510 hc         1 3U3       0.007700
     17 H3          -0.3610    -1.0100     0.1530 hc         1 3U3       0.007700
     18 H4           1.8960     0.8830    -0.5100 hc         1 3U3       0.030700
     19 H5           1.6820     0.8870     1.9500 h1         1 3U3       0.004700
     20 H6           1.2090    -0.9210     2.9550 ho         1 3U3       0.395000
     21 H7           3.9290     0.8830     0.9270 h1         1 3U3       0.010700
     22 H8           4.4700     0.8240     2.9720 ho         1 3U3       0.389000
     23 H9           3.7140    -2.1330     1.2310 h1         1 3U3       0.032700
     24 H10          5.8230    -2.1290     0.8530 ho         1 3U3       0.395000
     25 H11          3.9290    -2.1360    -1.2300 hc         1 3U3       0.030700
     26 H12          3.9290    -0.3640    -1.2310 hc         1 3U3       0.030700
     27 H13          1.6810    -2.1320    -0.2060 h1         1 3U3       0.079700
     28 H14          1.3470    -0.3850    -2.5610 hn         1 3U3       0.172500
     29 H15          0.9370    -3.4240    -4.5810 hc         1 3U3       0.022033
     30 H16          1.5550    -1.7810    -4.8000 hc         1 3U3       0.022033
     31 H17         -0.0950    -2.0350    -4.2170 hc         1 3U3       0.022033
@<TRIPOS>BOND
     1     1     2 1   
     2     1    15 1   
     3     1    16 1   
     4     1    17 1   
     5     2     3 1   
     6     2    10 1   
     7     2    18 1   
     8     3     4 1   
     9     3     5 1   
    10     3    19 1   
    11     4    20 1   
    12     5     6 1   
    13     5     7 1   
    14     5    21 1   
    15     6    22 1   
    16     7     8 1   
    17     7     9 1   
    18     7    23 1   
    19     8    24 1   
    20     9    10 1   
    21     9    25 1   
    22     9    26 1   
    23    10    11 1   
    24    10    27 1   
    25    11    12 1   
    26    11    28 1   
    27    12    13 2   
    28    12    14 1   
    29    14    29 1   
    30    14    30 1   
    31    14    31 1   
@<TRIPOS>SUBSTRUCTURE
     1 3U3         1 TEMP              0 ****  ****    0 ROOT
