@<TRIPOS>MOLECULE
3U4
   14    14     1     0     0
SMALL
bcc


@<TRIPOS>ATOM
      1 C1         -0.0710   -0.0010    0.0470 c         1 3U4      0.911200
      2 C2          1.4530   -0.0020   -0.0140 ca        1 3U4     -0.156600
      3 C3          2.1700    0.0000    1.1870 ca        1 3U4     -0.088000
      4 C4          3.5630   -0.0010    1.2050 ca        1 3U4     -0.182000
      5 C5          4.2730   -0.0030    0.0050 ca        1 3U4     -0.134000
      6 C6          3.5920   -0.0050   -1.2070 ca        1 3U4     -0.212000
      7 C7          2.1800   -0.0040   -1.2230 ca        1 3U4      0.150900
      8 O8         -0.6000    0.0020    1.1960 o         1 3U4     -0.822300
      9 O9         -0.7190   -0.0020   -1.0330 o         1 3U4     -0.822300
     10 F10         1.5600   -0.0060   -2.4250 f         1 3U4     -0.131900
     11 H1          1.5880    0.0020    2.1240 ha        1 3U4      0.159000
     12 H2          4.1020    0.0010    2.1620 ha        1 3U4      0.107000
     13 H3          5.3720   -0.0040    0.0120 ha        1 3U4      0.104000
     14 H4          4.1410   -0.0070   -2.1580 ha        1 3U4      0.118000
@<TRIPOS>BOND
     1    1    2 1   
     2    1    8 1   
     3    1    9 1   
     4    2    3 ar  
     5    2    7 ar  
     6    3    4 ar  
     7    3   11 1   
     8    4    5 ar  
     9    4   12 1   
    10    5    6 ar  
    11    5   13 1   
    12    6    7 ar  
    13    6   14 1   
    14    7   10 1   
@<TRIPOS>SUBSTRUCTURE
     1 3U4         1 TEMP              0 ****  ****    0 ROOT
