@<TRIPOS>MOLECULE
molecule
   14    14     1     0     0
SMALL
bcc


@<TRIPOS>ATOM
      1 C1           0.0000     0.0000     0.0000 c          1 3U4       0.881200
      2 C2           1.4750     0.0000     0.0000 ca         1 3U4      -0.139600
      3 C3           2.1780     0.0000     1.2070 ca         1 3U4      -0.072000
      4 C4           3.5560    -0.0020     1.2000 ca         1 3U4      -0.183000
      5 C5           4.2470    -0.0030    -0.0010 ca         1 3U4      -0.132000
      6 C6           3.5620    -0.0030    -1.2010 ca         1 3U4      -0.207000
      7 C7           2.1780    -0.0070    -1.2100 ca         1 3U4       0.153900
      8 O8          -0.6730     0.0070     1.1670 o          1 3U4      -0.829800
      9 O9          -0.6080     0.0000    -1.0520 o          1 3U4      -0.829800
     10 F10          1.5080    -0.0130    -2.3830 f          1 3U4      -0.125900
     11 H1           1.6410     0.0010     2.1480 ha         1 3U4       0.158000
     12 H2           4.1010    -0.0020     2.1360 ha         1 3U4       0.106000
     13 H3           5.3300    -0.0020     0.0010 ha         1 3U4       0.104000
     14 H4           4.1090    -0.0060    -2.1360 ha         1 3U4       0.116000
@<TRIPOS>BOND
     1     4     3 ar
     2     4     5 ar
     3     3     2 ar
     4     9     1 1
     5     5     6 ar
     6     2     1 1
     7     2     7 ar
     8     1     8 1
     9     6     7 ar
    10     7    10 1
    11     3    11 1
    12     4    12 1
    13     5    13 1
    14     6    14 1
@<TRIPOS>SUBSTRUCTURE
     1 3U4         1 TEMP              0 ****  ****    0 ROOT
