@<TRIPOS>MOLECULE
molecule
   38    42     1     0     0
SMALL
bcc


@<TRIPOS>ATOM
      1 C12          0.0000     0.0000     0.0000 ca         1 3U5      -0.068000
      2 C11          1.4050     0.0000     0.0000 ca         1 3U5      -0.155300
      3 C16          2.1330     0.0000     1.2030 ca         1 3U5      -0.110000
      4 C15          3.4930    -0.0020     1.1650 ca         1 3U5      -0.123000
      5 C14          4.1750    -0.0020    -0.0500 ca         1 3U5      -0.114000
      6 C13          3.5010    -0.0020    -1.2330 ca         1 3U5      -0.164300
      7 C10          2.0950    -0.0010    -1.2380 ca         1 3U5       0.423600
      8 N3           1.4140    -0.0010    -2.3890 nb         1 3U5      -0.675000
      9 C9           0.1070    -0.0010    -2.4150 ca         1 3U5       0.454200
     10 C8          -0.6520    -0.0000    -1.2300 ca         1 3U5      -0.175100
     11 C7          -2.1260    -0.0050    -1.2900 cc         1 3U5      -0.012300
     12 C2          -2.9230     0.7900    -2.1190 ca         1 3U5      -0.167000
     13 C3          -2.6630     1.7730    -3.0870 ca         1 3U5      -0.064000
     14 N2          -2.9520    -0.7840    -0.5580 na         1 3U5       0.027800
     15 N1          -4.2830    -0.5080    -0.8910 nc         1 3U5      -0.266400
     16 C1          -4.3160     0.4290    -1.8220 ca         1 3U5      -0.034000
     17 C6          -5.3540     1.0850    -2.5220 ca         1 3U5      -0.103000
     18 C5          -5.0550     2.0280    -3.4470 ca         1 3U5      -0.088000
     19 C4          -3.7220     2.3790    -3.7380 ca         1 3U5      -0.022000
     20 C17         -3.4500     3.4120    -4.7580 cc         1 3U5      -0.114400
     21 S1          -1.8600     3.9790    -5.2620 ss         1 3U5      -0.240300
     22 C19         -4.3770     4.0860    -5.4710 cd         1 3U5       0.401200
     23 N4          -3.8770     4.9600    -6.3200 nd         1 3U5      -0.743000
     24 C18         -2.5840     5.0630    -6.3680 cc         1 3U5       0.713300
     25 N5          -1.8900     5.9250    -7.1990 nv         1 3U5      -1.003500
     26 H1          -0.5580     0.0010     0.9280 ha         1 3U5       0.143000
     27 H2           1.6140     0.0000     2.1540 ha         1 3U5       0.135000
     28 H3           4.0530    -0.0020     2.0920 ha         1 3U5       0.134000
     29 H4           5.2580    -0.0030    -0.0540 ha         1 3U5       0.136000
     30 H5           4.0470    -0.0020    -2.1690 ha         1 3U5       0.152000
     31 H6          -0.4040    -0.0010    -3.3710 h4         1 3U5       0.037100
     32 H7          -1.6440     2.0530    -3.3220 ha         1 3U5       0.136000
     33 H8          -2.6570    -1.4590     0.1200 hn         1 3U5       0.333700
     34 H9          -6.3880     0.8350    -2.3180 ha         1 3U5       0.143000
     35 H10         -5.8590     2.5230    -3.9770 ha         1 3U5       0.135000
     36 H11         -5.4420     3.9230    -5.3540 h4         1 3U5       0.044100
     37 H12         -1.0300     5.6310    -7.6200 hn         1 3U5       0.446300
     38 H13         -2.2430     6.8450    -7.3740 hn         1 3U5       0.446300
@<TRIPOS>BOND
     1     5     6 ar
     2     5     4 ar
     3     6     7 ar
     4     4     3 ar
     5     7     8 ar
     6     7     2 ar
     7     3     2 ar
     8     8     9 ar
     9     2     1 ar
    10     9    10 ar
    11    25    24 1
    12     1    10 ar
    13    10    11 1
    14    21    24 1
    15    21    20 1
    16    24    23 2
    17    11    12 2
    18    11    14 1
    19    13    12 ar
    20    13    19 ar
    21    23    22 1
    22    20    19 1
    23    20    22 2
    24    12    16 ar
    25    19    18 ar
    26    14    15 1
    27    16    15 2
    28    16    17 ar
    29    18    17 ar
    30     1    26 1
    31     3    27 1
    32     4    28 1
    33     5    29 1
    34     6    30 1
    35     9    31 1
    36    13    32 1
    37    14    33 1
    38    17    34 1
    39    18    35 1
    40    22    36 1
    41    25    37 1
    42    25    38 1
@<TRIPOS>SUBSTRUCTURE
     1 3U5         1 TEMP              0 ****  ****    0 ROOT
