@<TRIPOS>MOLECULE
3U6
   47    51     1     0     0
SMALL
bcc


@<TRIPOS>ATOM
      1 C17          0.0000     0.0000     0.0000 c3         1 3U6      -0.040900
      2 C18          1.5380     0.0000     0.0000 c3         1 3U6      -0.021900
      3 C19          1.9800     0.0000     1.4780 c3         1 3U6      -0.021900
      4 C20          0.7700    -0.6030     2.2350 c3         1 3U6      -0.040900
      5 C16         -0.4410    -0.0020     1.4790 c3         1 3U6       0.128500
      6 N6          -1.6270    -0.8420     1.6610 nu         1 3U6      -0.508900
      7 C15         -2.8960    -0.2880     1.5410 ca         1 3U6       0.531200
      8 N5          -3.9620    -1.0530     1.7120 nb         1 3U6      -0.647000
      9 C14         -3.0310     1.0660     1.2500 ca         1 3U6      -0.329300
     10 C13         -4.2990     1.6110     1.1330 ca         1 3U6      -0.012000
     11 C12         -5.3960     0.7840     1.3110 ca         1 3U6      -0.300300
     12 C9          -5.1930    -0.5600     1.6130 ca         1 3U6       0.539100
     13 C8          -6.3580    -1.4530     1.8060 cc         1 3U6      -0.204000
     14 C2          -6.3210    -2.8900     2.1270 ca         1 3U6      -0.075800
     15 C3          -5.2950    -3.8060     2.3370 ca         1 3U6       0.010000
     16 C7          -7.6670    -1.1060     1.7270 cd         1 3U6      -0.261100
     17 N1          -8.4490    -2.1970     1.9660 na         1 3U6       0.371600
     18 C1          -7.6630    -3.3010     2.2120 ca         1 3U6      -0.233200
     19 C6          -7.9570    -4.6310     2.5050 ca         1 3U6      -0.107000
     20 C5          -6.9500    -5.5300     2.7070 ca         1 3U6      -0.076000
     21 C4          -5.6100    -5.1290     2.6320 ca         1 3U6      -0.157500
     22 C10         -4.5300    -6.1130     2.8540 cc         1 3U6       0.469900
     23 S1          -4.7450    -7.8260     3.2220 ss         1 3U6      -0.442800
     24 N3          -3.2510    -5.8730     2.8060 nd         1 3U6      -0.243000
     25 N2          -2.4650    -6.8360     3.0210 nd         1 3U6      -0.398000
     26 C11         -2.9900    -8.0020     3.2740 cc         1 3U6       0.533300
     27 N4          -2.2940    -9.1720     3.5340 nv         1 3U6      -0.456500
     28 H1          -0.3700    -0.8890    -0.4970 hc         1 3U6       0.023200
     29 H2          -0.3700     0.8900    -0.4950 hc         1 3U6       0.023200
     30 H3           1.9080    -0.8890    -0.4960 hc         1 3U6       0.014200
     31 H4           1.9080     0.8890    -0.4960 hc         1 3U6       0.014200
     32 H5           2.8560    -0.6230     1.6110 hc         1 3U6       0.014200
     33 H6           2.1700     1.0120     1.8160 hc         1 3U6       0.014200
     34 H7           0.7700    -0.2840     3.2700 hc         1 3U6       0.023200
     35 H8           0.7710    -1.6830     2.1580 hc         1 3U6       0.023200
     36 H9          -0.6310     1.0100     1.8160 h1         1 3U6       0.043700
     37 H10         -1.5240    -1.8060     1.9100 hn         1 3U6       0.306800
     38 H11         -2.1540     1.6870     1.1150 ha         1 3U6       0.125000
     39 H12         -4.4300     2.6610     0.9020 ha         1 3U6       0.099000
     40 H13         -6.4010     1.1810     1.2290 ha         1 3U6       0.112000
     41 H14         -4.2610    -3.4910     2.2770 ha         1 3U6       0.144000
     42 H15         -8.0350    -0.1120     1.5070 h4         1 3U6       0.145000
     43 H16         -9.4500    -2.1950     1.9630 hn         1 3U6       0.112700
     44 H17         -8.9890    -4.9550     2.5670 ha         1 3U6       0.099000
     45 H18         -7.1890    -6.5610     2.9370 ha         1 3U6       0.108000
     46 H19         -2.7920   -10.0200     3.7170 hn         1 3U6       0.274300
     47 H20         -1.2930    -9.1680     3.5400 hn         1 3U6       0.274300
@<TRIPOS>BOND
     1     1     2 1   
     2     1     5 1   
     3     1    28 1   
     4     1    29 1   
     5     2     3 1   
     6     2    30 1   
     7     2    31 1   
     8     3     4 1   
     9     3    32 1   
    10     3    33 1   
    11     4     5 1   
    12     4    34 1   
    13     4    35 1   
    14     5     6 1   
    15     5    36 1   
    16     6     7 1   
    17     6    37 1   
    18     7     8 ar  
    19     7     9 ar  
    20     8    12 ar  
    21     9    10 ar  
    22     9    38 1   
    23    10    11 ar  
    24    10    39 1   
    25    11    12 ar  
    26    11    40 1   
    27    12    13 1   
    28    13    14 1   
    29    13    16 2   
    30    14    15 ar  
    31    14    18 ar  
    32    15    21 ar  
    33    15    41 1   
    34    16    17 1   
    35    16    42 1   
    36    17    18 1   
    37    17    43 1   
    38    18    19 ar  
    39    19    20 ar  
    40    19    44 1   
    41    20    21 ar  
    42    20    45 1   
    43    21    22 1   
    44    22    23 1   
    45    22    24 2   
    46    23    26 1   
    47    24    25 1   
    48    25    26 2   
    49    26    27 1   
    50    27    46 1   
    51    27    47 1   
@<TRIPOS>SUBSTRUCTURE
     1 3U6         1 TEMP              0 ****  ****    0 ROOT
