@<TRIPOS>MOLECULE
molecule
   47    51     1     0     0
SMALL
bcc


@<TRIPOS>ATOM
      1 C17          0.0000     0.0000     0.0000 c3         1 3U6      -0.098900
      2 C18          1.5380     0.0000     0.0000 c3         1 3U6      -0.083900
      3 C19          1.9800     0.0000     1.4780 c3         1 3U6      -0.083900
      4 C20          0.7700    -0.6030     2.2350 c3         1 3U6      -0.098900
      5 C16         -0.4410    -0.0020     1.4790 c3         1 3U6       0.239500
      6 N6          -1.6270    -0.8420     1.6610 nu         1 3U6      -0.911900
      7 C15         -2.8960    -0.2880     1.5410 ca         1 3U6       0.714200
      8 N5          -3.9620    -1.0530     1.7120 nb         1 3U6      -0.762000
      9 C14         -3.0310     1.0660     1.2500 ca         1 3U6      -0.334300
     10 C13         -4.2990     1.6110     1.1330 ca         1 3U6      -0.049000
     11 C12         -5.3960     0.7840     1.3110 ca         1 3U6      -0.317300
     12 C9          -5.1930    -0.5600     1.6130 ca         1 3U6       0.572100
     13 C8          -6.3580    -1.4530     1.8060 cc         1 3U6      -0.207000
     14 C2          -6.3210    -2.8900     2.1270 ca         1 3U6      -0.079800
     15 C3          -5.2950    -3.8060     2.3370 ca         1 3U6      -0.013000
     16 C7          -7.6670    -1.1060     1.7270 cd         1 3U6      -0.083100
     17 N1          -8.4490    -2.1970     1.9660 na         1 3U6      -0.173400
     18 C1          -7.6630    -3.3010     2.2120 ca         1 3U6      -0.039200
     19 C6          -7.9570    -4.6310     2.5050 ca         1 3U6      -0.148000
     20 C5          -6.9500    -5.5300     2.7070 ca         1 3U6      -0.093000
     21 C4          -5.6100    -5.1290     2.6320 ca         1 3U6      -0.161500
     22 C10         -4.5300    -6.1130     2.8540 cd         1 3U6       0.474900
     23 S1          -4.7450    -7.8260     3.2220 ss         1 3U6      -0.379800
     24 N3          -3.2510    -5.8730     2.8060 nc         1 3U6      -0.297000
     25 N2          -2.4650    -6.8360     3.0210 nc         1 3U6      -0.417000
     26 C11         -2.9900    -8.0020     3.2740 cd         1 3U6       0.698300
     27 N4          -2.2940    -9.1720     3.5340 nv         1 3U6      -0.982500
     28 H1          -0.3700    -0.8890    -0.4970 hc         1 3U6       0.053450
     29 H2          -0.3700     0.8900    -0.4950 hc         1 3U6       0.053450
     30 H3           1.9080    -0.8890    -0.4960 hc         1 3U6       0.044950
     31 H4           1.9080     0.8890    -0.4960 hc         1 3U6       0.044950
     32 H5           2.8560    -0.6230     1.6110 hc         1 3U6       0.044950
     33 H6           2.1700     1.0120     1.8160 hc         1 3U6       0.044950
     34 H7           0.7700    -0.2840     3.2700 hc         1 3U6       0.053450
     35 H8           0.7710    -1.6830     2.1580 hc         1 3U6       0.053450
     36 H9          -0.6310     1.0100     1.8160 h1         1 3U6       0.063700
     37 H10         -1.5240    -1.8060     1.9100 hn         1 3U6       0.455800
     38 H11         -2.1540     1.6870     1.1150 ha         1 3U6       0.136000
     39 H12         -4.4300     2.6610     0.9020 ha         1 3U6       0.131000
     40 H13         -6.4010     1.1810     1.2290 ha         1 3U6       0.128000
     41 H14         -4.2610    -3.4910     2.2770 ha         1 3U6       0.179000
     42 H15         -8.0350    -0.1120     1.5070 h4         1 3U6       0.170000
     43 H16         -9.4500    -2.1950     1.9630 hn         1 3U6       0.298700
     44 H17         -8.9890    -4.9550     2.5670 ha         1 3U6       0.127000
     45 H18         -7.1890    -6.5610     2.9370 ha         1 3U6       0.132000
     46 H19         -2.7920   -10.0200     3.7170 hn         1 3U6       0.451300
     47 H20         -1.2930    -9.1680     3.5400 hn         1 3U6       0.451300
@<TRIPOS>BOND
     1    19    20 ar  
     2    19    18 ar  
     3    20    21 ar  
     4    17    18 1   
     5    17    16 1   
     6    18    14 ar  
     7    24    25 1   
     8    24    22 2   
     9    21    22 1   
    10    21    15 ar  
    11    25    26 2   
    12    16    13 2   
    13    22    23 1   
    14    14    15 ar  
    15    14    13 1   
    16    13    12 1   
    17    26    23 1   
    18    26    27 1   
    19    12    11 ar  
    20    12     8 ar  
    21    11    10 ar  
    22     8     7 ar  
    23     4     5 1   
    24     4     3 1   
    25    10     9 ar  
    26     7     9 ar  
    27     7     6 1   
    28     5     6 1   
    29     5     1 1   
    30     3     2 1   
    31     2     1 1   
    32     1    28 1   
    33     1    29 1   
    34     2    30 1   
    35     2    31 1   
    36     3    32 1   
    37     3    33 1   
    38     4    34 1   
    39     4    35 1   
    40     5    36 1   
    41     6    37 1   
    42     9    38 1   
    43    10    39 1   
    44    11    40 1   
    45    15    41 1   
    46    16    42 1   
    47    17    43 1   
    48    19    44 1   
    49    20    45 1   
    50    27    46 1   
    51    27    47 1   
@<TRIPOS>SUBSTRUCTURE
     1 3U6         1 TEMP              0 ****  ****    0 ROOT
