@<TRIPOS>MOLECULE
molecule
   39    40     1     0     0
SMALL
bcc


@<TRIPOS>ATOM
      1 C3           0.0000     0.0000     0.0000 c          1 3U7       0.892600
      2 C4           1.5070     0.0000     0.0000 c3         1 3U7      -0.182400
      3 C5           2.0160     0.0000     1.4420 c3         1 3U7      -0.061400
      4 C6           3.5460     0.0000     1.4430 c3         1 3U7       0.118400
      5 C8           5.3680    -0.0000     2.9680 ca         1 3U7       0.209100
      6 C9           6.2130     0.0000     1.8640 ca         1 3U7      -0.236000
      7 C10          7.5780    -0.0010     2.0370 ca         1 3U7      -0.041000
      8 C11          8.1170    -0.0020     3.3300 ca         1 3U7      -0.230600
      9 C12          7.2620    -0.0010     4.4410 ca         1 3U7       0.116400
     10 O1          -0.6050    -0.0010     1.0460 o          1 3U7      -0.847300
     11 O2          -0.6710     0.0050    -1.1630 o          1 3U7      -0.847300
     12 O7           4.0230    -0.0010     2.7900 os         1 3U7      -0.298900
     13 C13          5.8960    -0.0070     4.2540 ca         1 3U7      -0.034600
     14 Cl1          4.8340    -0.0070     5.6290 cl         1 3U7      -0.070400
     15 Cl2          7.9220    -0.0040     6.0460 cl         1 3U7      -0.057400
     16 C16          9.5720    -0.0030     3.5200 c          1 3U7       0.580700
     17 O17         10.0380    -0.0040     4.6410 o          1 3U7      -0.533100
     18 C18         10.4890    -0.0040     2.3240 c3         1 3U7      -0.171400
     19 C19         11.9440    -0.0050     2.7970 c3         1 3U7      -0.080700
     20 C20         12.8600    -0.0050     1.5990 cc         1 3U7       0.399800
     21 N21         13.8400     0.8930     1.3580 na         1 3U7      -0.292900
     22 C22         14.4320     0.5380     0.1770 cc         1 3U7      -0.287600
     23 C23         13.7960    -0.5650    -0.2630 cd         1 3U7       0.314200
     24 N24         12.8430    -0.8770     0.6280 nd         1 3U7      -0.699000
     25 H1           1.8680     0.8850    -0.5110 hc         1 3U7       0.029200
     26 H2           1.8680    -0.8850    -0.5110 hc         1 3U7       0.029200
     27 H3           1.6550     0.8840     1.9530 hc         1 3U7       0.064700
     28 H4           1.6550    -0.8850     1.9530 hc         1 3U7       0.064700
     29 H5           3.9070     0.8850     0.9330 h1         1 3U7       0.030200
     30 H6           3.9080    -0.8840     0.9320 h1         1 3U7       0.030200
     31 H7           5.7950     0.0010     0.8640 ha         1 3U7       0.158000
     32 H8           8.2340    -0.0010     1.1750 ha         1 3U7       0.140000
     33 H16         10.3050     0.8810     1.7270 hc         1 3U7       0.078200
     34 H17         10.3030    -0.8880     1.7270 hc         1 3U7       0.078200
     35 H18         12.1310     0.8790     3.3940 hc         1 3U7       0.067200
     36 H19         12.1290    -0.8900     3.3930 hc         1 3U7       0.067200
     37 H20         14.0870     1.6730     1.9350 hn         1 3U7       0.297700
     38 H21         15.2540     1.0470    -0.3120 h4         1 3U7       0.169000
     39 H22         14.0180    -1.1070    -1.1740 h4         1 3U7       0.038100
@<TRIPOS>BOND
     1     1     2 1   
     2     1    10 1   
     3     1    11 1   
     4     2     3 1   
     5     3     4 1   
     6     4    12 1   
     7     5     6 ar  
     8     5    12 1   
     9     5    13 ar  
    10     6     7 ar  
    11     7     8 ar  
    12     8     9 ar  
    13     8    16 1   
    14     9    13 ar  
    15    16    17 2   
    16    16    18 1   
    17    18    19 1   
    18    19    20 1   
    19    20    21 1   
    20    20    24 2   
    21    21    22 1   
    22    22    23 2   
    23    23    24 1   
    24     9    15 1   
    25    13    14 1   
    26     2    25 1   
    27     2    26 1   
    28     3    27 1   
    29     3    28 1   
    30     4    29 1   
    31     4    30 1   
    32     6    31 1   
    33     7    32 1   
    34    18    33 1   
    35    18    34 1   
    36    19    35 1   
    37    19    36 1   
    38    21    37 1   
    39    22    38 1   
    40    23    39 1   
@<TRIPOS>SUBSTRUCTURE
     1 3U7         1 TEMP              0 ****  ****    0 ROOT
