@<TRIPOS>MOLECULE
3U7
   39    40     1     0     0
SMALL
bcc


@<TRIPOS>ATOM
      1 C3         -0.1010    0.1320    0.1070 c         1 3U7      0.913600
      2 C4          1.3560    0.6250    0.2330 c3        1 3U7     -0.203400
      3 C5          2.1350   -0.2280    1.2040 c3        1 3U7     -0.069400
      4 C6          3.4710    0.4280    1.5030 c3        1 3U7      0.124400
      5 C8          5.5110   -0.1760    2.5910 ca        1 3U7      0.188100
      6 C9          6.0840    1.0640    2.2620 ca        1 3U7     -0.214000
      7 C10         7.4030    1.3340    2.5990 ca        1 3U7     -0.056000
      8 C11         8.1860    0.3800    3.2570 ca        1 3U7     -0.213600
      9 C12         7.6110   -0.8470    3.6190 ca        1 3U7      0.074400
     10 O1         -0.7300   -0.1470    1.1670 o         1 3U7     -0.842300
     11 O2         -0.5880    0.0560   -1.0560 o         1 3U7     -0.842300
     12 O7          4.2290   -0.5270    2.2770 os        1 3U7     -0.303900
     13 C13         6.2810   -1.1410    3.2910 ca        1 3U7     -0.031600
     14 CL1         5.6080   -2.6330    3.7330 cl        1 3U7     -0.044400
     15 CL2         8.5410   -1.9820    4.4810 cl        1 3U7     -0.078400
     16 C16         9.6040    0.7060    3.5410 c         1 3U7      0.594700
     17 O17         9.9410    1.5180    4.4060 o         1 3U7     -0.515100
     18 C18        10.5980    0.0050    2.6520 c3        1 3U7     -0.184400
     19 C19        11.9570    0.6750    2.6810 c3        1 3U7     -0.102700
     20 C20        12.9450   -0.0510    1.8350 cc        1 3U7      0.395800
     21 N21        12.7520   -0.2770    0.4590 na        1 3U7     -0.315900
     22 C22        13.8720   -0.9610   -0.0060 cc        1 3U7     -0.261600
     23 C23        14.7190   -1.1240    1.1060 cd        1 3U7      0.288200
     24 N24        14.1400   -0.5600    2.2380 nd        1 3U7     -0.664000
     25 H1          1.8390    0.6130   -0.7750 hc        1 3U7      0.021700
     26 H2          1.3230    1.6850    0.5900 hc        1 3U7      0.021700
     27 H3          2.3030   -1.2490    0.7760 hc        1 3U7      0.067200
     28 H4          1.5420   -0.3540    2.1480 hc        1 3U7      0.067200
     29 H5          4.0300    0.6560    0.5580 h1        1 3U7      0.033700
     30 H6          3.3420    1.3620    2.1080 h1        1 3U7      0.033700
     31 H7          5.4910    1.8310    1.7430 ha        1 3U7      0.157000
     32 H8          7.8410    2.3130    2.3490 ha        1 3U7      0.140000
     33 H16        10.1880   -0.0180    1.6090 hc        1 3U7      0.076200
     34 H17        10.6870   -1.0590    3.0020 hc        1 3U7      0.076200
     35 H18        11.8670    1.7350    2.3190 hc        1 3U7      0.079200
     36 H19        12.3290    0.7190    3.7420 hc        1 3U7      0.079200
     37 H20        11.9590   -0.0240   -0.0660 hn        1 3U7      0.299700
     38 H21        13.9800   -1.2670   -1.0440 h4        1 3U7      0.174000
     39 H22        15.6940   -1.6080    1.1480 h4        1 3U7      0.038100
@<TRIPOS>BOND
     1    1    2 1   
     2    1   10 1   
     3    1   11 1   
     4    2    3 1   
     5    2   25 1   
     6    2   26 1   
     7    3    4 1   
     8    3   27 1   
     9    3   28 1   
    10    4   12 1   
    11    4   29 1   
    12    4   30 1   
    13    5    6 ar  
    14    5   12 1   
    15    5   13 ar  
    16    6    7 ar  
    17    6   31 1   
    18    7    8 ar  
    19    7   32 1   
    20    8    9 ar  
    21    8   16 1   
    22    9   13 ar  
    23    9   15 1   
    24   13   14 1   
    25   16   17 2   
    26   16   18 1   
    27   18   19 1   
    28   18   33 1   
    29   18   34 1   
    30   19   20 1   
    31   19   35 1   
    32   19   36 1   
    33   20   21 1   
    34   20   24 2   
    35   21   22 1   
    36   21   37 1   
    37   22   23 2   
    38   22   38 1   
    39   23   24 1   
    40   23   39 1   
@<TRIPOS>SUBSTRUCTURE
     1 3U7         1 TEMP              0 ****  ****    0 ROOT
