@<TRIPOS>MOLECULE
molecule
   39    40     1     0     0
SMALL
bcc


@<TRIPOS>ATOM
      1 C11          0.0000     0.0000     0.0000 ca         1 3U8      -0.236600
      2 C12          1.4000     0.0000     0.0000 ca         1 3U8      -0.029000
      3 C13          2.0860     0.0000     1.1940 ca         1 3U8      -0.033600
      4 C8           1.3890    -0.0000     2.3980 ca         1 3U8       0.200100
      5 C5           2.2260     0.0020     5.9840 c3         1 3U8      -0.061400
      6 C6           1.2920     0.0020     4.7720 c3         1 3U8       0.118400
      7 C4           1.3940     0.0020     7.2680 c3         1 3U8      -0.183400
      8 O1           3.5110     0.0020     8.3020 o          1 3U8      -0.848300
      9 O2           1.8020     0.0040     9.7040 o          1 3U8      -0.848300
     10 C3           2.3140     0.0020     8.4630 c          1 3U8       0.893600
     11 O7           2.0690     0.0000     3.5730 os         1 3U8      -0.301900
     12 C9          -0.0020     0.0020     2.4020 ca         1 3U8      -0.234000
     13 C10         -0.6960     0.0010     1.2150 ca         1 3U8      -0.049000
     14 Cl1          3.8220    -0.0020     1.1970 cl         1 3U8      -0.090400
     15 C16         -0.7370     0.0050    -1.2710 c          1 3U8       0.587700
     16 O17         -0.1320     0.0110    -2.3230 o          1 3U8      -0.554100
     17 C18         -2.2440     0.0060    -1.2680 c3         1 3U8      -0.173400
     18 C19         -2.7560     0.0130    -2.7100 c3         1 3U8      -0.081700
     19 C20         -4.2640     0.0130    -2.7070 cc         1 3U8       0.400800
     20 N21         -5.0510     0.9150    -3.3320 na         1 3U8      -0.293900
     21 C22         -6.3490     0.5590    -3.0830 cc         1 3U8      -0.287600
     22 C23         -6.3100    -0.5470    -2.3160 cd         1 3U8       0.314200
     23 N24         -5.0230    -0.8610    -2.1060 nd         1 3U8      -0.699000
     24 H1           1.9430    -0.0000    -0.9380 ha         1 3U8       0.160000
     25 H2           2.8510     0.8860     5.9580 hc         1 3U8       0.063700
     26 H3           2.8500    -0.8830     5.9580 hc         1 3U8       0.063700
     27 H4           0.6660    -0.8820     4.7990 h1         1 3U8       0.029200
     28 H5           0.6690     0.8870     4.7970 h1         1 3U8       0.029200
     29 H6           0.7690     0.8870     7.2940 hc         1 3U8       0.028700
     30 H7           0.7690    -0.8820     7.2940 hc         1 3U8       0.028700
     31 H9          -0.5390     0.0020     3.3430 ha         1 3U8       0.155000
     32 H10         -1.7790     0.0020     1.2200 ha         1 3U8       0.134000
     33 H14         -2.6030     0.8880    -0.7520 hc         1 3U8       0.079200
     34 H15         -2.6040    -0.8810    -0.7600 hc         1 3U8       0.079200
     35 H16         -2.3960    -0.8690    -3.2250 hc         1 3U8       0.066700
     36 H17         -2.3950     0.9000    -3.2170 hc         1 3U8       0.066700
     37 H18         -4.7430     1.6980    -3.8740 hn         1 3U8       0.296700
     38 H19         -7.2370     1.0700    -3.4340 h4         1 3U8       0.169000
     39 H20         -7.1680    -1.0910    -1.9390 h4         1 3U8       0.038100
@<TRIPOS>BOND
     1     1     2 ar  
     2     1    13 ar  
     3     1    15 1   
     4     2     3 ar  
     5     3     4 ar  
     6     4    11 1   
     7     4    12 ar  
     8     5     6 1   
     9     5     7 1   
    10     6    11 1   
    11     7    10 1   
    12     8    10 1   
    13     9    10 1   
    14    12    13 ar  
    15    15    16 2   
    16    15    17 1   
    17    17    18 1   
    18    18    19 1   
    19    19    20 1   
    20    19    23 2   
    21    20    21 1   
    22    21    22 2   
    23    22    23 1   
    24     3    14 1   
    25     2    24 1   
    26     5    25 1   
    27     5    26 1   
    28     6    27 1   
    29     6    28 1   
    30     7    29 1   
    31     7    30 1   
    32    12    31 1   
    33    13    32 1   
    34    17    33 1   
    35    17    34 1   
    36    18    35 1   
    37    18    36 1   
    38    20    37 1   
    39    21    38 1   
    40    22    39 1   
@<TRIPOS>SUBSTRUCTURE
     1 3U8         1 TEMP              0 ****  ****    0 ROOT
