@<TRIPOS>MOLECULE
3U8
   39    40     1     0     0
SMALL
bcc


@<TRIPOS>ATOM
      1 C11        -0.0330   -0.1500   -0.0680 ca        1 3U8     -0.233600
      2 C12         1.3520    0.0700   -0.0010 ca        1 3U8     -0.039000
      3 C13         2.0080    0.1470    1.2240 ca        1 3U8     -0.045600
      4 C8          1.2720   -0.0050    2.4260 ca        1 3U8      0.199100
      5 C5          2.1840    0.1680    5.9570 c3        1 3U8     -0.069400
      6 C6          1.2030   -0.0220    4.8150 c3        1 3U8      0.123400
      7 C4          1.4340    0.2520    7.2640 c3        1 3U8     -0.202400
      8 O1          3.2930   -0.7360    8.4410 o         1 3U8     -0.843300
      9 O2          2.2180    0.9630    9.4190 o         1 3U8     -0.843300
     10 C3          2.3980    0.1550    8.4650 c         1 3U8      0.913600
     11 O7          1.9680    0.0900    3.5950 os        1 3U8     -0.302900
     12 C9         -0.1130   -0.2410    2.3540 ca        1 3U8     -0.230000
     13 C10        -0.7520   -0.3120    1.1230 ca        1 3U8     -0.051000
     14 CL1         3.6840    0.4220    1.2320 cl        1 3U8     -0.070400
     15 C16        -0.6780   -0.1980   -1.3890 c         1 3U8      0.587700
     16 O17        -0.0250   -0.1710   -2.4430 o         1 3U8     -0.554100
     17 C18        -2.1830   -0.2620   -1.4060 c3        1 3U8     -0.180400
     18 C19        -2.7370   -0.1760   -2.8150 c3        1 3U8     -0.101700
     19 C20        -4.2240   -0.0730   -2.8010 cc        1 3U8      0.395800
     20 N21        -4.8990    1.0960   -2.4030 na        1 3U8     -0.316900
     21 C22        -6.2630    0.8420   -2.5170 cc        1 3U8     -0.262600
     22 C23        -6.3750   -0.4810   -2.9850 cd        1 3U8      0.289200
     23 N24        -5.1130   -1.0380   -3.1570 nd        1 3U8     -0.665000
     24 H1          1.9170    0.1840   -0.9430 ha        1 3U8      0.162000
     25 H2          2.9060   -0.6910    5.9970 hc        1 3U8      0.067200
     26 H3          2.7810    1.1000    5.7900 hc        1 3U8      0.067200
     27 H4          0.7250   -1.0350    4.8510 h1        1 3U8      0.034200
     28 H5          0.4130    0.7750    4.8210 h1        1 3U8      0.034200
     29 H6          0.7060   -0.5950    7.3470 hc        1 3U8      0.022200
     30 H7          0.8610    1.2100    7.3260 hc        1 3U8      0.022200
     31 H9         -0.7000   -0.3750    3.2750 ha        1 3U8      0.153000
     32 H10        -1.8360   -0.5020    1.1000 ha        1 3U8      0.130000
     33 H14        -2.5070   -1.2270   -0.9320 hc        1 3U8      0.070700
     34 H15        -2.5820    0.5780   -0.7780 hc        1 3U8      0.070700
     35 H16        -2.4270   -1.0860   -3.3960 hc        1 3U8      0.078700
     36 H17        -2.2990    0.7150   -3.3410 hc        1 3U8      0.078700
     37 H18        -4.4810    1.9330   -2.0980 hn        1 3U8      0.299700
     38 H19        -7.0190    1.5830   -2.2690 h4        1 3U8      0.173000
     39 H20        -7.2800   -1.0470   -3.2000 h4        1 3U8      0.038100
@<TRIPOS>BOND
     1    1    2 ar  
     2    1   13 ar  
     3    1   15 1   
     4    2    3 ar  
     5    2   24 1   
     6    3    4 ar  
     7    3   14 1   
     8    4   11 1   
     9    4   12 ar  
    10    5    6 1   
    11    5    7 1   
    12    5   25 1   
    13    5   26 1   
    14    6   11 1   
    15    6   27 1   
    16    6   28 1   
    17    7   10 1   
    18    7   29 1   
    19    7   30 1   
    20    8   10 1   
    21    9   10 1   
    22   12   13 ar  
    23   12   31 1   
    24   13   32 1   
    25   15   16 2   
    26   15   17 1   
    27   17   18 1   
    28   17   33 1   
    29   17   34 1   
    30   18   19 1   
    31   18   35 1   
    32   18   36 1   
    33   19   20 1   
    34   19   23 2   
    35   20   21 1   
    36   20   37 1   
    37   21   22 2   
    38   21   38 1   
    39   22   23 1   
    40   22   39 1   
@<TRIPOS>SUBSTRUCTURE
     1 3U8         1 TEMP              0 ****  ****    0 ROOT
