@<TRIPOS>MOLECULE
molecule
   43    45     1     0     0
SMALL
bcc


@<TRIPOS>ATOM
      1 C14          0.0000     0.0000     0.0000 ca         1 3U9      -0.193000
      2 C11          1.3820     0.0000     0.0000 ca         1 3U9      -0.124000
      3 C6          -1.9400     1.0130     5.9240 ca         1 3U9      -0.164000
      4 C13          1.3840    -0.0020     2.3990 ca         1 3U9      -0.106000
      5 C4          -1.7580     2.2460     7.9860 ca         1 3U9       0.452200
      6 C24         -4.7150     1.6670     8.3890 cc         1 3U9       0.281200
      7 C5          -2.5500     1.5940     7.0450 ca         1 3U9      -0.159300
      8 C10          0.0030    -0.0010     2.4020 ca         1 3U9      -0.094300
      9 C15         -0.6930    -0.0010     1.2010 ca         1 3U9       0.131100
     10 C1          -0.5640     1.1150     5.8000 ca         1 3U9      -0.027200
     11 C12          2.0740     0.0000     1.1990 ca         1 3U9       0.095900
     12 C20         -4.0170     1.5150     7.2240 cd         1 3U9      -0.187600
     13 C2           0.1610     1.7860     6.7870 ca         1 3U9       0.692200
     14 C16         -1.1130    -1.4390     4.0850 c3         1 3U9      -0.115100
     15 C18         -2.7030     0.0000    -0.0710 c3         1 3U9       0.127700
     16 C9          -0.7490    -0.0020     3.7070 c3         1 3U9       0.200400
     17 N3          -0.4500     2.3210     7.8310 nb         1 3U9      -0.722000
     18 N23         -6.0040     1.5160     8.0790 nc         1 3U9      -0.361000
     19 N22         -6.1130     1.2860     6.8190 nd         1 3U9      -0.201800
     20 N21         -4.9530     1.2750     6.2600 na         1 3U9       0.125400
     21 N7           1.5440     1.8920     6.6710 nv         1 3U9      -1.013500
     22 O17         -2.0530    -0.0010     1.2020 os         1 3U9      -0.337900
     23 O8           0.0720     0.5650     4.7300 os         1 3U9      -0.331900
     24 F19          3.4250    -0.0000     1.1980 f          1 3U9      -0.139900
     25 H14         -0.5420     0.0000    -0.9380 ha         1 3U9       0.145000
     26 H11          1.9230     0.0010    -0.9380 ha         1 3U9       0.149000
     27 H6          -2.5290     0.4990     5.1750 ha         1 3U9       0.148000
     28 H13          1.9270    -0.0020     3.3360 ha         1 3U9       0.163000
     29 H4          -2.2210     2.6970     8.8550 h4         1 3U9       0.032100
     30 H24         -4.3030     1.8710     9.3710 h4         1 3U9       0.054100
     31 H9          -1.6540     0.5840     3.6040 h1         1 3U9       0.060700
     32 H71N         2.0580     1.2010     6.1610 hn         1 3U9       0.445300
     33 H72N         2.0240     2.6590     7.0980 hn         1 3U9       0.445300
     34 H161        -2.0710    -1.4480     4.5910 hc         1 3U9       0.050700
     35 H162        -1.1720    -2.0440     3.1880 hc         1 3U9       0.050700
     36 H163        -0.3530    -1.8430     4.7430 hc         1 3U9       0.050700
     37 H251        -3.9760     1.7800     4.4800 h1         1 3U9       0.065367
     38 H252        -4.2770     0.0510     4.7030 h1         1 3U9       0.065367
     39 H253        -5.6100     1.1330     4.2780 h1         1 3U9       0.065367
     40 H181        -3.7770    -0.0090     0.0730 h1         1 3U9       0.045367
     41 H182        -2.4200     0.8900    -0.6200 h1         1 3U9       0.045367
     42 H183        -2.4050    -0.8790    -0.6290 h1         1 3U9       0.045367
     43 C25         -4.6870     1.0440     4.8370 c3         1 3U9       0.044600
@<TRIPOS>BOND
     1     1     2 ar  
     2     1     9 ar  
     3     2    11 ar  
     4     3     7 ar  
     5     3    10 ar  
     6     4     8 ar  
     7     4    11 ar  
     8     5     7 ar  
     9     5    17 ar  
    10     6    12 2   
    11     6    18 1   
    12     7    12 1   
    13     8     9 ar  
    14     8    16 1   
    15     9    22 1   
    16    10    13 ar  
    17    10    23 1   
    18    11    24 1   
    19    12    20 1   
    20    13    17 ar  
    21    13    21 1   
    22    14    16 1   
    23    43    20 1   
    24    15    22 1   
    25    16    23 1   
    26    18    19 2   
    27    19    20 1   
    28     1    25 1   
    29     2    26 1   
    30     3    27 1   
    31     4    28 1   
    32     5    29 1   
    33     6    30 1   
    34    16    31 1   
    35    21    32 1   
    36    21    33 1   
    37    14    34 1   
    38    14    35 1   
    39    14    36 1   
    40    43    37 1   
    41    43    38 1   
    42    43    39 1   
    43    15    40 1   
    44    15    41 1   
    45    15    42 1   
@<TRIPOS>SUBSTRUCTURE
     1 3U9         1 TEMP              0 ****  ****    0 ROOT
