@<TRIPOS>MOLECULE
molecule
   39    39     1     0     0
SMALL
bcc


@<TRIPOS>ATOM
      1 O2P          0.0000     0.0000     0.0000 o          1 3UB      -0.806000
      2 P            1.4800     0.0000     0.0000 p5         1 3UB       1.163600
      3 C1           1.6260     1.6580    -2.0910 c3         1 3UB       0.235100
      4 C2           0.9370     3.0230    -2.0850 c3         1 3UB      -0.108100
      5 C3           2.8670     1.7160    -2.9860 c3         1 3UB      -0.108100
      6 C4           2.0890     0.0000     1.7180 c3         1 3UB      -0.038500
      7 C5           3.6130     0.1270     1.7190 c3         1 3UB      -0.097100
      8 C7          -0.7510    -2.3430     4.8270 c3         1 3UB       0.215700
      9 NC           1.7020    -1.2510     2.3740 ns         1 3UB      -0.516900
     10 O1C          0.1100    -0.2280     3.5350 o          1 3UB      -0.625000
     11 O1P          2.0160     1.3150    -0.7600 os         1 3UB      -0.608200
     12 O2C          0.3410    -2.4100     3.8720 os         1 3UB      -0.444900
     13 O3P          2.0160    -1.3140    -0.7600 o          1 3UB      -0.806000
     14 C71         -1.0060    -3.7160     5.3950 ca         1 3UB      -0.084300
     15 C72         -0.3400    -4.1270     6.5350 ca         1 3UB      -0.103500
     16 C73         -0.5730    -5.3860     7.0550 ca         1 3UB      -0.139000
     17 C74         -1.4720    -6.2340     6.4360 ca         1 3UB      -0.131000
     18 C75         -2.1370    -5.8240     5.2960 ca         1 3UB      -0.139000
     19 C76         -1.9090    -4.5630     4.7790 ca         1 3UB      -0.103500
     20 H1           0.9420     0.9090    -2.4710 h1         1 3UB       0.050700
     21 H2           1.5780     3.7500    -1.6000 hc         1 3UB       0.030533
     22 H2A          0.7450     3.3350    -3.1050 hc         1 3UB       0.030533
     23 H2B         -0.0000     2.9520    -1.5460 hc         1 3UB       0.030533
     24 H3           2.5890     2.0910    -3.9640 hc         1 3UB       0.030533
     25 H3A          3.6020     2.3750    -2.5420 hc         1 3UB       0.030533
     26 H3B          3.2860     0.7220    -3.0870 hc         1 3UB       0.030533
     27 H4           1.6570     0.8370     2.2540 h1         1 3UB       0.088700
     28 H5           3.8890     1.1730     1.6660 hc         1 3UB       0.033033
     29 H5A          4.0110    -0.3060     2.6290 hc         1 3UB       0.033033
     30 H5B          4.0200    -0.3970     0.8620 hc         1 3UB       0.033033
     31 H7          -0.4890    -1.6640     5.6290 h1         1 3UB       0.052700
     32 H7A         -1.6450    -1.9870     4.3300 h1         1 3UB       0.052700
     33 HNC          2.1680    -2.1050     2.1360 hn         1 3UB       0.329500
     34 H72          0.3640    -3.4620     7.0200 ha         1 3UB       0.137500
     35 H73         -0.0520    -5.7080     7.9480 ha         1 3UB       0.123000
     36 H74         -1.6520    -7.2220     6.8430 ha         1 3UB       0.119000
     37 H75         -2.8430    -6.4880     4.8120 ha         1 3UB       0.123000
     38 H76         -2.4300    -4.2410     3.8860 ha         1 3UB       0.137500
     39 C6           0.6960    -1.2600     3.2710 c          1 3UB       0.746100
@<TRIPOS>BOND
     1     2     1 1   
     2     2    13 1   
     3     3     5 1   
     4     4     3 1   
     5     6     2 1   
     6     6     9 1   
     7     7     6 1   
     8    39    12 1   
     9     9    39 1   
    10    10    39 2   
    11    11     2 1   
    12    11     3 1   
    13    12     8 1   
    14    14     8 1   
    15    14    15 ar  
    16    16    15 ar  
    17    17    16 ar  
    18    18    17 ar  
    19    18    19 ar  
    20    19    14 ar  
    21     3    20 1   
    22     4    21 1   
    23     4    22 1   
    24     4    23 1   
    25     5    24 1   
    26     5    25 1   
    27     5    26 1   
    28     6    27 1   
    29     7    28 1   
    30     7    29 1   
    31     7    30 1   
    32     8    31 1   
    33     8    32 1   
    34     9    33 1   
    35    15    34 1   
    36    16    35 1   
    37    17    36 1   
    38    18    37 1   
    39    19    38 1   
@<TRIPOS>SUBSTRUCTURE
     1 3UB         1 TEMP              0 ****  ****    0 ROOT
