@<TRIPOS>MOLECULE
molecule
   56    59     1     0     0
SMALL
bcc


@<TRIPOS>ATOM
      1 O01          0.0000     0.0000     0.0000 o          1 3UE      -0.597100
      2 C02          1.2160     0.0000     0.0000 c          1 3UE       0.670700
      3 C03          1.9560     0.0000     1.2800 ca         1 3UE      -0.100600
      4 C04          3.1880     0.6490     1.3770 ca         1 3UE      -0.129000
      5 C05          3.8730     0.6450     2.5740 ca         1 3UE      -0.082000
      6 C06          3.3410     0.0010     3.6770 ca         1 3UE      -0.136200
      7 N07          4.0820     0.0020     4.9580 no         1 3UE       0.289200
      8 O08          5.2960    -0.0970     4.9610 o          1 3UE      -0.199500
      9 O09          3.4780     0.1030     6.0110 o          1 3UE      -0.199500
     10 C10          2.1210    -0.6430     3.5880 ca         1 3UE      -0.032300
     11 C11          1.5490    -1.3420     4.7950 c3         1 3UE      -0.058800
     12 C12          1.4230    -0.6440     2.3980 ca         1 3UE      -0.081000
     13 N13          1.8890    -0.0070    -1.1680 n          1 3UE      -0.485800
     14 C14          3.3540    -0.1340    -1.1940 c3         1 3UE       0.099500
     15 C15          3.7270    -1.2610    -2.1630 c3         1 3UE       0.141800
     16 C16          1.1770     0.1060    -2.4500 c3         1 3UE       0.099500
     17 C17          1.6420    -1.0310    -3.3670 c3         1 3UE       0.141800
     18 N18          3.1030    -1.0080    -3.4680 n3         1 3UE      -0.728600
     19 C19          3.5740    -1.9700    -4.4720 c3         1 3UE       0.268100
     20 C20          2.9140    -1.6790    -5.7950 ca         1 3UE      -0.085800
     21 C21          2.8510    -0.3810    -6.2650 ca         1 3UE      -0.113750
     22 C22          2.2460    -0.1130    -7.4800 ca         1 3UE      -0.131000
     23 C23          1.7040    -1.1450    -8.2240 ca         1 3UE      -0.124000
     24 C24          1.7680    -2.4430    -7.7540 ca         1 3UE      -0.131000
     25 C25          2.3770    -2.7110    -6.5420 ca         1 3UE      -0.113750
     26 C26          5.0690    -1.8520    -4.6200 ca         1 3UE      -0.085800
     27 C27          5.6570    -0.6050    -4.7130 ca         1 3UE      -0.113750
     28 C28          7.0290    -0.4970    -4.8480 ca         1 3UE      -0.131000
     29 C29          7.8120    -1.6350    -4.8890 ca         1 3UE      -0.124000
     30 C30          7.2230    -2.8820    -4.7940 ca         1 3UE      -0.131000
     31 C31          5.8530    -2.9910    -4.6560 ca         1 3UE      -0.113750
     32 H1           3.6050     1.1540     0.5140 ha         1 3UE       0.159000
     33 H2           4.8290     1.1480     2.6510 ha         1 3UE       0.162000
     34 H3           0.7140    -1.9620     4.4910 hc         1 3UE       0.062700
     35 H4           2.3120    -1.9610     5.2490 hc         1 3UE       0.062700
     36 H5           1.2080    -0.6040     5.5110 hc         1 3UE       0.062700
     37 H6           0.4670    -1.1490     2.3290 ha         1 3UE       0.169000
     38 H7           3.7930     0.7960    -1.5330 h1         1 3UE       0.066950
     39 H8           3.7150    -0.3740    -0.2020 h1         1 3UE       0.066950
     40 H9           3.3720    -2.2060    -1.7710 h1         1 3UE       0.051200
     41 H10          4.8040    -1.2940    -2.2790 h1         1 3UE       0.051200
     42 H11          0.1100     0.0240    -2.2810 h1         1 3UE       0.066950
     43 H12          1.4060     1.0600    -2.9090 h1         1 3UE       0.066950
     44 H13          1.2100    -0.8980    -4.3520 h1         1 3UE       0.051200
     45 H14          1.3250    -1.9800    -2.9520 h1         1 3UE       0.051200
     46 H16          3.3200    -2.9750    -4.1560 h1         1 3UE       0.037700
     47 H17          3.2760     0.4280    -5.6820 ha         1 3UE       0.136000
     48 H18          2.1970     0.9040    -7.8480 ha         1 3UE       0.131000
     49 H19          1.2290    -0.9350    -9.1740 ha         1 3UE       0.130000
     50 H20          1.3450    -3.2520    -8.3380 ha         1 3UE       0.131000
     51 H21          2.4260    -3.7290    -6.1740 ha         1 3UE       0.136000
     52 H22          5.0440     0.2870    -4.6810 ha         1 3UE       0.136000
     53 H23          7.4900     0.4810    -4.9220 ha         1 3UE       0.131000
     54 H24          8.8860    -1.5500    -4.9960 ha         1 3UE       0.130000
     55 H25          7.8370    -3.7740    -4.8250 ha         1 3UE       0.131000
     56 H26          5.3910    -3.9680    -4.5810 ha         1 3UE       0.136000
@<TRIPOS>BOND
     1    11    10 1
     2     1     2 2
     3    12    10 ar
     4    12     3 ar
     5    10     6 ar
     6     2     3 1
     7     2    13 1
     8     3     4 ar
     9     6     7 1
    10     6     5 ar
    11     8     7 1
    12     7     9 1
    13     4     5 ar
    14    14    13 1
    15    14    15 1
    16    13    16 1
    17    15    18 1
    18    16    17 1
    19    27    28 ar
    20    27    26 ar
    21    28    29 ar
    22    17    18 1
    23    18    19 1
    24    19    26 1
    25    19    20 1
    26    26    31 ar
    27    29    30 ar
    28    30    31 ar
    29    20    25 ar
    30    20    21 ar
    31    25    24 ar
    32    21    22 ar
    33    24    23 ar
    34    22    23 ar
    35     4    32 1
    36     5    33 1
    37    11    34 1
    38    11    35 1
    39    11    36 1
    40    12    37 1
    41    14    38 1
    42    14    39 1
    43    15    40 1
    44    15    41 1
    45    16    42 1
    46    16    43 1
    47    17    44 1
    48    17    45 1
    49    19    46 1
    50    21    47 1
    51    22    48 1
    52    23    49 1
    53    24    50 1
    54    25    51 1
    55    27    52 1
    56    28    53 1
    57    29    54 1
    58    30    55 1
    59    31    56 1
@<TRIPOS>SUBSTRUCTURE
     1 3UE         1 TEMP              0 ****  ****    0 ROOT
