@<TRIPOS>MOLECULE
molecule
   26    26     1     0     0
SMALL
bcc


@<TRIPOS>ATOM
      1 C6           0.0000     0.0000     0.0000 ca         1 3UF      -0.009000
      2 C5           1.3830     0.0000     0.0000 ca         1 3UF      -0.365500
      3 O4           3.5450    -0.5450    -1.2510 o          1 3UF      -0.521800
      4 S2           2.2620     0.0000    -1.5270 sy         1 3UF       1.224200
      5 O1           1.3790    -0.5430    -2.4990 o          1 3UF      -0.521800
      6 N3           2.5070     1.5820    -1.9500 nz         1 3UF      -0.805500
      7 C10          2.0770     0.0000     1.1960 ca         1 3UF      -0.009000
      8 C9           1.3910    -0.0010     2.3950 ca         1 3UF      -0.146000
      9 C8           0.0020    -0.0000     2.3980 ca         1 3UF       0.116900
     10 C7          -0.6920     0.0060     1.1940 ca         1 3UF      -0.146000
     11 S11         -0.8780     0.0070     3.9250 ss         1 3UF      -0.138000
     12 C12          0.4500    -0.0050     5.1610 c3         1 3UF      -0.028300
     13 C13         -0.1600    -0.0010     6.5640 c3         1 3UF       0.158400
     14 O14          0.8860    -0.0100     7.5370 oh         1 3UF      -0.604800
     15 H1          -0.5410    -0.0120    -0.9390 ha         1 3UF       0.156500
     16 H2           3.0410     2.0390    -1.2380 hn         1 3UF       0.490800
     17 H3           1.6240     2.0410    -2.0520 hn         1 3UF       0.490800
     18 H4           3.1600    -0.0090     1.1930 ha         1 3UF       0.156500
     19 H5           1.9350     0.0460     3.3300 ha         1 3UF       0.169000
     20 H6          -1.7740     0.0620     1.1920 ha         1 3UF       0.169000
     21 H7           1.0550    -0.8940     5.0330 h1         1 3UF       0.083200
     22 H8           1.0690     0.8750     5.0340 h1         1 3UF       0.083200
     23 H9          -0.7650     0.8880     6.6920 h1         1 3UF       0.040200
     24 H10         -0.7790    -0.8810     6.6910 h1         1 3UF       0.040200
     25 H11          0.5110    -0.0080     8.4020 ho         1 3UF       0.424000
     26 H33          3.0070     1.6220    -2.8160 hn         1 3UF       0.490800
@<TRIPOS>BOND
     1    14    13 1
     2    13    12 1
     3    11    12 1
     4    11     9 1
     5     9    10 ar
     6     9     8 ar
     7    10     1 ar
     8     8     7 ar
     9     1     2 ar
    10     7     2 ar
    11     2     4 1
    12     6     4 1
    13     4     3 2
    14     4     5 2
    15     1    15 1
    16     6    16 1
    17     6    17 1
    18     7    18 1
    19     8    19 1
    20    10    20 1
    21    12    21 1
    22    12    22 1
    23    13    23 1
    24    13    24 1
    25    14    25 1
    26    26     6 1
@<TRIPOS>SUBSTRUCTURE
     1 3UF         1 TEMP              0 ****  ****    0 ROOT
