@<TRIPOS>MOLECULE
3UF
   26    26     1     0     0
SMALL
bcc


@<TRIPOS>ATOM
      1 C6           0.0000     0.0000     0.0000 ca         1 3UF       0.029500
      2 C5           1.3830     0.0000     0.0000 ca         1 3UF      -0.248500
      3 O4           3.5450    -0.5450    -1.2510 o          1 3UF      -0.496800
      4 S2           2.2620     0.0000    -1.5270 sy         1 3UF       0.934200
      5 O1           1.3790    -0.5430    -2.4990 o          1 3UF      -0.496800
      6 N3           2.5070     1.5820    -1.9500 nz         1 3UF      -0.132500
      7 C10          2.0770     0.0000     1.1960 ca         1 3UF       0.029500
      8 C9           1.3910    -0.0010     2.3950 ca         1 3UF      -0.119500
      9 C8           0.0020    -0.0000     2.3980 ca         1 3UF       0.146900
     10 C7          -0.6920     0.0060     1.1940 ca         1 3UF      -0.119500
     11 S11         -0.8780     0.0070     3.9250 ss         1 3UF      -0.245000
     12 C12          0.4500    -0.0050     5.1610 c3         1 3UF       0.059700
     13 C13         -0.1600    -0.0010     6.5640 c3         1 3UF       0.249400
     14 O14          0.8860    -0.0100     7.5370 oh         1 3UF      -0.591800
     15 H1          -0.5410    -0.0120    -0.9390 ha         1 3UF       0.126000
     16 H2           3.0410     2.0390    -1.2380 hn         1 3UF       0.313133
     17 H3           1.6240     2.0410    -2.0520 hn         1 3UF       0.313133
     18 H4           3.1600    -0.0090     1.1930 ha         1 3UF       0.126000
     19 H5           1.9350     0.0460     3.3300 ha         1 3UF       0.143500
     20 H6          -1.7740     0.0620     1.1920 ha         1 3UF       0.143500
     21 H7           1.0550    -0.8940     5.0330 h1         1 3UF       0.052200
     22 H8           1.0690     0.8750     5.0340 h1         1 3UF       0.052200
     23 H9          -0.7650     0.8880     6.6920 h1         1 3UF       0.003200
     24 H10         -0.7790    -0.8810     6.6910 h1         1 3UF       0.003200
     25 H11          0.5110    -0.0080     8.4020 ho         1 3UF       0.411000
     26 H33          3.0070     1.6220    -2.8160 hn         1 3UF       0.313133
@<TRIPOS>BOND
     1     1     2 ar  
     2     1    10 ar  
     3     1    15 1   
     4     2     4 1   
     5     2     7 ar  
     6     3     4 2   
     7     4     5 2   
     8     4     6 1   
     9     6    16 1   
    10     6    17 1   
    11     6    26 1   
    12     7     8 ar  
    13     7    18 1   
    14     8     9 ar  
    15     8    19 1   
    16     9    10 ar  
    17     9    11 1   
    18    10    20 1   
    19    11    12 1   
    20    12    13 1   
    21    12    21 1   
    22    12    22 1   
    23    13    14 1   
    24    13    23 1   
    25    13    24 1   
    26    14    25 1   
@<TRIPOS>SUBSTRUCTURE
     1 3UF         1 TEMP              0 ****  ****    0 ROOT
