@<TRIPOS>MOLECULE
molecule
   33    34     1     0     0
SMALL
bcc


@<TRIPOS>ATOM
      1 C11          0.0000     0.0000     0.0000 ca         1 3UG       0.197900
      2 C5           1.3850     0.0000     0.0000 ca         1 3UG      -0.410500
      3 C10         -0.6930     0.0070     1.1990 ca         1 3UG       0.102400
      4 C7           1.3910     0.0010     2.3990 ca         1 3UG       0.102400
      5 C6           2.0800     0.0000     1.1980 ca         1 3UG       0.197900
      6 F14         -2.0450     0.0060     1.1980 f          1 3UG      -0.077400
      7 F13         -0.6750    -0.0010    -1.1700 f          1 3UG      -0.086400
      8 S1           2.2640    -0.0030    -1.5270 sy         1 3UG       1.253200
      9 O3           1.3820    -0.5470    -2.4970 o          1 3UG      -0.492800
     10 N4           2.5090     1.5790    -1.9540 nz         1 3UG      -0.809500
     11 O2           3.5470    -0.5470    -1.2500 o          1 3UG      -0.492800
     12 C9           0.0020     0.0130     2.4020 ca         1 3UG       0.162600
     13 F12          2.0700    -0.0100     3.5680 f          1 3UG      -0.077400
     14 F8           3.4310    -0.0110     1.1940 f          1 3UG      -0.086400
     15 N20         -0.6970     0.0150     3.6160 nh         1 3UG      -0.611000
     16 C15         -1.5640    -1.1650     3.7250 c3         1 3UG       0.158800
     17 C19         -1.4660     1.2550     3.7780 c3         1 3UG       0.158800
     18 C18         -2.0980     1.2860     5.1730 c3         1 3UG      -0.074400
     19 C17         -3.0120     0.0690     5.3390 c3         1 3UG      -0.087400
     20 C16         -2.1990    -1.2070     5.1160 c3         1 3UG      -0.074400
     21 H1           3.0400     2.0390    -1.2410 hn         1 3UG       0.495133
     22 H2           1.6250     2.0370    -2.0580 hn         1 3UG       0.495133
     23 H3          -0.9740    -2.0610     3.5720 h1         1 3UG       0.048450
     24 H4          -2.3440    -1.1090     2.9750 h1         1 3UG       0.048450
     25 H5          -0.8050     2.1060     3.6640 h1         1 3UG       0.048450
     26 H6          -2.2470     1.2950     3.0290 h1         1 3UG       0.048450
     27 H7          -2.6800     2.1930     5.2850 hc         1 3UG       0.064950
     28 H8          -1.3170     1.2560     5.9230 hc         1 3UG       0.064950
     29 H9          -3.4260     0.0630     6.3410 hc         1 3UG       0.055200
     30 H10         -3.8140     0.1180     4.6120 hc         1 3UG       0.055200
     31 H11         -1.4190    -1.2730     5.8660 hc         1 3UG       0.064950
     32 H12         -2.8520    -2.0680     5.1890 hc         1 3UG       0.064950
     33 H43          3.0150     1.6170    -2.8160 hn         1 3UG       0.495133
@<TRIPOS>BOND
     1    18    19 1
     2    18    17 1
     3    19    20 1
     4    17    15 1
     5    20    16 1
     6    15    16 1
     7    15    12 1
     8    13     4 1
     9    12     4 ar
    10    12     3 ar
    11     4     5 ar
    12     6     3 1
    13     3     1 ar
    14     5    14 1
    15     5     2 ar
    16     1     2 ar
    17     1     7 1
    18     2     8 1
    19    10     8 1
    20     8    11 2
    21     8     9 2
    22    10    21 1
    23    10    22 1
    24    16    23 1
    25    16    24 1
    26    17    25 1
    27    17    26 1
    28    18    27 1
    29    18    28 1
    30    19    29 1
    31    19    30 1
    32    20    31 1
    33    20    32 1
    34    33    10 1
@<TRIPOS>SUBSTRUCTURE
     1 3UG         1 TEMP              0 ****  ****    0 ROOT
