@<TRIPOS>MOLECULE
3UG
   33    34     1     0     0
SMALL
bcc


@<TRIPOS>ATOM
      1 C11          0.0000     0.0000     0.0000 ca         1 3UG       0.203400
      2 C5           1.3850     0.0000     0.0000 ca         1 3UG      -0.281500
      3 C10         -0.6930     0.0070     1.1990 ca         1 3UG       0.088900
      4 C7           1.3910     0.0010     2.3990 ca         1 3UG       0.088900
      5 C6           2.0800     0.0000     1.1980 ca         1 3UG       0.203400
      6 F14         -2.0450     0.0060     1.1980 f          1 3UG      -0.077400
      7 F13         -0.6750    -0.0010    -1.1700 f          1 3UG      -0.083400
      8 S1           2.2640    -0.0030    -1.5270 sy         1 3UG       0.957200
      9 O3           1.3820    -0.5470    -2.4970 o          1 3UG      -0.470800
     10 N4           2.5090     1.5790    -1.9540 nz         1 3UG      -0.131500
     11 O2           3.5470    -0.5470    -1.2500 o          1 3UG      -0.470800
     12 C9           0.0020     0.0130     2.4020 ca         1 3UG       0.109600
     13 F12          2.0700    -0.0100     3.5680 f          1 3UG      -0.077400
     14 F8           3.4310    -0.0110     1.1940 f          1 3UG      -0.083400
     15 N20         -0.6970     0.0150     3.6160 nh         1 3UG      -0.400000
     16 C15         -1.5640    -1.1650     3.7250 c3         1 3UG       0.141300
     17 C19         -1.4660     1.2550     3.7780 c3         1 3UG       0.141300
     18 C18         -2.0980     1.2860     5.1730 c3         1 3UG      -0.018400
     19 C17         -3.0120     0.0690     5.3390 c3         1 3UG      -0.030400
     20 C16         -2.1990    -1.2070     5.1160 c3         1 3UG      -0.018400
     21 H1           3.0400     2.0390    -1.2410 hn         1 3UG       0.316800
     22 H2           1.6250     2.0370    -2.0580 hn         1 3UG       0.316800
     23 H3          -0.9740    -2.0610     3.5720 h1         1 3UG       0.020450
     24 H4          -2.3440    -1.1090     2.9750 h1         1 3UG       0.020450
     25 H5          -0.8050     2.1060     3.6640 h1         1 3UG       0.020450
     26 H6          -2.2470     1.2950     3.0290 h1         1 3UG       0.020450
     27 H7          -2.6800     2.1930     5.2850 hc         1 3UG       0.031950
     28 H8          -1.3170     1.2560     5.9230 hc         1 3UG       0.031950
     29 H9          -3.4260     0.0630     6.3410 hc         1 3UG       0.025200
     30 H10         -3.8140     0.1180     4.6120 hc         1 3UG       0.025200
     31 H11         -1.4190    -1.2730     5.8660 hc         1 3UG       0.031950
     32 H12         -2.8520    -2.0680     5.1890 hc         1 3UG       0.031950
     33 H43          3.0150     1.6170    -2.8160 hn         1 3UG       0.316800
@<TRIPOS>BOND
     1     1     2 ar  
     2     1     3 ar  
     3     1     7 1   
     4     2     5 ar  
     5     2     8 1   
     6     3     6 1   
     7     3    12 ar  
     8     4     5 ar  
     9     4    12 ar  
    10     4    13 1   
    11     5    14 1   
    12     8     9 2   
    13     8    10 1   
    14     8    11 2   
    15    10    21 1   
    16    10    22 1   
    17    10    33 1   
    18    12    15 1   
    19    15    16 1   
    20    15    17 1   
    21    16    20 1   
    22    16    23 1   
    23    16    24 1   
    24    17    18 1   
    25    17    25 1   
    26    17    26 1   
    27    18    19 1   
    28    18    27 1   
    29    18    28 1   
    30    19    20 1   
    31    19    29 1   
    32    19    30 1   
    33    20    31 1   
    34    20    32 1   
@<TRIPOS>SUBSTRUCTURE
     1 3UG         1 TEMP              0 ****  ****    0 ROOT
