@<TRIPOS>MOLECULE
molecule
   47    49     1     0     0
SMALL
bcc


@<TRIPOS>ATOM
      1 O1           0.0000     0.0000     0.0000 os         1 3UH      -0.234900
      2 C2           1.4290     0.0000     0.0000 c3         1 3UH       0.008400
      3 C3           1.9300     0.0000     1.4210 c          1 3UH       0.893600
      4 O4           1.1450     0.0000     2.3390 o          1 3UH      -0.817800
      5 O6           3.2500     0.0000     1.6670 o          1 3UH      -0.817800
      6 C9          -0.6160    -0.0000    -1.2090 ca         1 3UH       0.228100
      7 C10         -2.0160     0.0060    -1.2840 ca         1 3UH      -0.202600
      8 C11         -2.8240     0.0130    -0.0490 c          1 3UH       0.664700
      9 N12         -4.1690     0.0190    -0.1240 ns         1 3UH      -0.606900
     10 C14         -4.9710     0.0240     1.1020 c3         1 3UH       0.165300
     11 C15         -6.4350     0.0310     0.7450 ca         1 3UH      -0.096300
     12 C16         -7.1120    -1.1640     0.5840 ca         1 3UH      -0.056000
     13 C17         -8.4540    -1.1590     0.2560 ca         1 3UH      -0.161200
     14 N18         -9.1790    -2.4380     0.0830 no         1 3UH       0.294200
     15 O19         -8.5920    -3.4950     0.2300 o          1 3UH      -0.210000
     16 O20        -10.3620    -2.4340    -0.2060 o          1 3UH      -0.210000
     17 C21         -9.1210     0.0400     0.0900 ca         1 3UH      -0.076000
     18 C22         -8.4450     1.2350     0.2510 ca         1 3UH      -0.155000
     19 C23         -7.1030     1.2300     0.5840 ca         1 3UH      -0.074000
     20 O30         -2.2760     0.0120     1.0360 o          1 3UH      -0.534100
     21 C31         -2.6420     0.0060    -2.5300 ca         1 3UH      -0.058000
     22 C33         -1.8740     0.0000    -3.6890 cp         1 3UH      -0.129000
     23 C34         -2.5370     0.0010    -5.0160 cp         1 3UH       0.002000
     24 C35         -3.9270     0.0130    -5.1040 ca         1 3UH      -0.134000
     25 C36         -4.5370     0.0140    -6.3420 ca         1 3UH      -0.124500
     26 C38         -3.7720     0.0040    -7.4940 ca         1 3UH      -0.148000
     27 C39         -2.3900    -0.0090    -7.4120 ca         1 3UH      -0.124500
     28 C40         -1.7700    -0.0050    -6.1800 ca         1 3UH      -0.134000
     29 C45         -0.4810    -0.0050    -3.6030 ca         1 3UH      -0.054000
     30 C47          0.1400    -0.0000    -2.3720 ca         1 3UH      -0.243000
     31 H1           1.7900     0.8850    -0.5110 h1         1 3UH       0.027700
     32 H2           1.7900    -0.8850    -0.5110 h1         1 3UH       0.027700
     33 H4          -4.6200     0.0140    -1.0170 hn         1 3UH       0.306500
     34 H5          -4.7380     0.9090     1.6830 h1         1 3UH       0.066200
     35 H6          -4.7460    -0.8600     1.6850 h1         1 3UH       0.066200
     36 H7          -6.5950    -2.1040     0.7360 ha         1 3UH       0.176000
     37 H8         -10.1730     0.0430    -0.1670 ha         1 3UH       0.159000
     38 H9          -8.9740     2.1750     0.1500 ha         1 3UH       0.144000
     39 H10         -6.7780     2.2540     0.7300 ha         1 3UH       0.152000
     40 H11         -3.7240     0.0110    -2.5950 ha         1 3UH       0.119000
     41 H12         -4.5280     0.0220    -4.2030 ha         1 3UH       0.130500
     42 H13         -5.6180     0.0240    -6.4120 ha         1 3UH       0.121500
     43 H14         -4.2550     0.0020    -8.4630 ha         1 3UH       0.120000
     44 H15         -1.7950    -0.0160    -8.3170 ha         1 3UH       0.121500
     45 H16         -0.6890    -0.0150    -6.1170 ha         1 3UH       0.130500
     46 H17          0.1150    -0.0080    -4.5080 ha         1 3UH       0.125000
     47 H18          1.2220    -0.0050    -2.3130 ha         1 3UH       0.156000
@<TRIPOS>BOND
     1    16    14 1
     2    14    15 1
     3    14    13 1
     4    17    13 ar
     5    17    18 ar
     6    13    12 ar
     7    18    19 ar
     8    12    11 ar
     9    19    11 ar
    10    11    10 1
    11    10     9 1
    12    20     8 2
    13     9     8 1
    14     8     7 1
    15    25    24 ar
    16    25    26 ar
    17    24    23 ar
    18    26    27 ar
    19    21     7 ar
    20    21    22 ar
    21     7     6 ar
    22    23    22 1
    23    23    28 ar
    24    27    28 ar
    25    22    29 ar
    26     4     3 1
    27     6     1 1
    28     6    30 ar
    29     1     2 1
    30    29    30 ar
    31     3     2 1
    32     3     5 1
    33     2    31 1
    34     2    32 1
    35     9    33 1
    36    10    34 1
    37    10    35 1
    38    12    36 1
    39    17    37 1
    40    18    38 1
    41    19    39 1
    42    21    40 1
    43    24    41 1
    44    25    42 1
    45    26    43 1
    46    27    44 1
    47    28    45 1
    48    29    46 1
    49    30    47 1
@<TRIPOS>SUBSTRUCTURE
     1 3UH         1 TEMP              0 ****  ****    0 ROOT
