@<TRIPOS>MOLECULE
molecule
   85    90     1     0     0
SMALL
bcc


@<TRIPOS>ATOM
      1 C7           0.0000     0.0000     0.0000 ca         1 3UJ      -0.110000
      2 C6           4.7420    -0.2430    10.4800 ca         1 3UJ      -0.077000
      3 C5           2.0770     0.0000     1.1950 ca         1 3UJ      -0.114000
      4 C4           2.8440     1.0000    11.2370 ca         1 3UJ      -0.109000
      5 C3           1.3800     0.0000     0.0000 ca         1 3UJ      -0.127000
      6 C2           4.1890     0.6710    11.3330 ca         1 3UJ      -0.159000
      7 C8           2.0450     0.4200    10.2740 ca         1 3UJ      -0.145000
      8 C9           1.3990     0.0120     2.3980 ca         1 3UJ      -0.160000
      9 C10         -2.8720    -0.9130     1.9940 ca         1 3UJ      -0.032000
     10 C11         -4.9670     0.0140     1.2270 ca         1 3UJ      -0.063000
     11 C12         -2.8770     0.9260     0.4330 ca         1 3UJ      -0.042000
     12 C13          3.0450    -2.0360     7.8100 cc         1 3UJ      -0.103100
     13 C14         -4.2670    -0.9110     2.0020 ca         1 3UJ      -0.038000
     14 C15          3.9510    -0.8460     9.5010 ca         1 3UJ      -0.100800
     15 C16         -0.6950     0.0070     1.2050 cp         1 3UJ      -0.024000
     16 C17         -2.1790     0.0060     1.2100 cp         1 3UJ      -0.039000
     17 C18         -4.2720     0.9340     0.4450 ca         1 3UJ      -0.155600
     18 C19          4.2060    -1.8380     8.4540 cd         1 3UJ      -0.151400
     19 C20          2.5880    -0.5130     9.3960 ca         1 3UJ      -0.034200
     20 C21          0.0120     0.0120     2.4130 ca         1 3UJ       0.089600
     21 C22         -5.0130     1.9140    -0.3770 c          1 3UJ       0.666700
     22 C23        -12.9960     4.0200    -2.4970 c3         1 3UJ      -0.103400
     23 C24        -12.7920     2.4930    -2.5680 c3         1 3UJ      -0.103400
     24 C25        -11.5830     4.6030    -2.2810 c3         1 3UJ       0.103800
     25 C26        -11.2730     2.2820    -2.3880 c3         1 3UJ       0.103800
     26 C27         -0.3380     1.2110     4.4180 c3         1 3UJ       0.112800
     27 C28         -0.4080    -1.2080     4.3900 c3         1 3UJ       0.112800
     28 C29         -1.1700     1.2200     5.7020 c3         1 3UJ       0.166300
     29 C30         -1.2400    -1.1990     5.6760 c3         1 3UJ       0.166300
     30 C31          5.5220    -2.5080     8.1560 c3         1 3UJ      -0.014900
     31 C32         -8.5990     2.6800    -0.9960 c3         1 3UJ      -0.092400
     32 C33          0.6740    -1.2040     7.9070 c3         1 3UJ       0.050300
     33 C34         -9.3650     3.6950    -1.8470 c3         1 3UJ       0.140800
     34 N37         -5.5600    -2.5930     3.4480 n1         1 3UJ      -0.362800
     35 N38          2.0680    -1.2490     8.3560 na         1 3UJ      -0.076400
     36 N39         -0.6750     0.0190     3.6270 nh         1 3UJ      -0.598000
     37 N40        -10.8090     3.4940    -1.6660 n3         1 3UJ      -0.655600
     38 N41         -0.9020    -0.0060     6.4650 n3         1 3UJ      -0.728600
     39 N42         -6.3610     1.9190    -0.3700 ns         1 3UJ      -0.538900
     40 O43         -4.4070     2.7170    -1.0600 o          1 3UJ      -0.594100
     41 H1          -0.5420    -0.0000    -0.9380 ha         1 3UJ       0.141000
     42 H2           5.7930    -0.4930    10.5630 ha         1 3UJ       0.129000
     43 H3           3.1600     0.0000     1.1910 ha         1 3UJ       0.134000
     44 H4           2.4140     1.7250    11.9170 ha         1 3UJ       0.129000
     45 H5           1.9220    -0.0050    -0.9380 ha         1 3UJ       0.136000
     46 H6           4.8000     1.1410    12.0940 ha         1 3UJ       0.128000
     47 H7           0.9970     0.6850    10.2090 ha         1 3UJ       0.128000
     48 H8           1.9500     0.0120     3.3310 ha         1 3UJ       0.135000
     49 H9          -2.3280    -1.6310     2.5950 ha         1 3UJ       0.151000
     50 H10         -6.0500     0.0170     1.2330 ha         1 3UJ       0.143000
     51 H11         -2.3360     1.6410    -0.1760 ha         1 3UJ       0.164000
     52 H12          2.8870    -2.7090     6.9750 h4         1 3UJ       0.162000
     53 H13        -13.8030     4.3190    -3.1550 hc         1 3UJ       0.054700
     54 H14        -13.2050     4.3210    -1.4780 hc         1 3UJ       0.054700
     55 H15        -12.6450     2.1830    -3.5960 hc         1 3UJ       0.054700
     56 H16        -13.6420     1.9820    -2.1330 hc         1 3UJ       0.054700
     57 H17        -11.6500     5.5780    -1.8140 h1         1 3UJ       0.053700
     58 H18        -11.0590     4.6710    -3.2270 h1         1 3UJ       0.053700
     59 H19        -10.8950     1.6200    -3.1570 h1         1 3UJ       0.053700
     60 H20        -11.0660     1.8790    -1.4040 h1         1 3UJ       0.053700
     61 H21         -0.6270     2.0580     3.8070 h1         1 3UJ       0.045700
     62 H22          0.7100     1.2990     4.6790 h1         1 3UJ       0.045700
     63 H23          0.6330    -1.3620     4.6480 h1         1 3UJ       0.045700
     64 H24         -0.7440    -2.0240     3.7620 h1         1 3UJ       0.045700
     65 H25         -0.8340     2.0350     6.3310 h1         1 3UJ       0.064950
     66 H26         -2.2110     1.3740     5.4440 h1         1 3UJ       0.064950
     67 H27         -0.9510    -2.0460     6.2860 h1         1 3UJ       0.064950
     68 H28         -2.2880    -1.2870     5.4150 h1         1 3UJ       0.064950
     69 H29          5.3520    -3.3750     7.5280 hc         1 3UJ       0.038367
     70 H30          6.1730    -1.8120     7.6410 hc         1 3UJ       0.038367
     71 H31          5.9870    -2.8200     9.0830 hc         1 3UJ       0.038367
     72 H32         -8.8140     2.8520     0.0520 hc         1 3UJ       0.054700
     73 H33         -8.9040     1.6770    -1.2670 hc         1 3UJ       0.054700
     74 H34          0.0230    -1.0800     8.7640 h1         1 3UJ       0.067200
     75 H35          0.4290    -2.1280     7.3980 h1         1 3UJ       0.067200
     76 H36         -9.0990     4.6990    -1.5390 h1         1 3UJ       0.040700
     77 H37         -9.1100     3.5570    -2.8910 h1         1 3UJ       0.040700
     78 H38          0.9250    -0.3270     5.9600 h1         1 3UJ       0.049700
     79 H39          0.9940     0.8320     7.2950 h1         1 3UJ       0.049700
     80 H40         -6.8730     2.9860    -2.2400 h1         1 3UJ       0.058200
     81 H41         -6.7880     3.7920    -0.6680 h1         1 3UJ       0.058200
     82 H44         -6.8630     1.0530    -0.3660 hn         1 3UJ       0.291500
     83 C1          -4.9800    -1.8570     2.8070 cg         1 3UJ       0.240800
     84 C35          0.4950    -0.0520     6.9160 c3         1 3UJ       0.129800
     85 C36         -7.0940     2.8900    -1.1840 c3         1 3UJ       0.064000
@<TRIPOS>BOND
     1    85    39 1
     2    85    31 1
     3    39    21 1
     4    34    83 3
     5    31    33 1
     6    10    17 ar
     7    10    13 ar
     8    83    13 1
     9    21    40 2
    10    21    17 1
    11    17    11 ar
    12    13     9 ar
    13    33    37 1
    14    37    24 1
    15    37    25 1
    16    11    16 ar
    17     9    16 ar
    18    24    22 1
    19    16    15 1
    20    25    23 1
    21    22    23 1
    22    28    26 1
    23    28    38 1
    24    15     1 ar
    25    15    20 ar
    26    26    36 1
    27     1     5 ar
    28    36    20 1
    29    36    27 1
    30    38    29 1
    31    38    84 1
    32    20     8 ar
    33    29    27 1
    34     5     3 ar
    35    84    32 1
    36     8     3 ar
    37    32    35 1
    38    35    12 1
    39    35    19 1
    40    12    18 2
    41    19     7 ar
    42    19    14 ar
    43     7     4 ar
    44    18    14 1
    45    18    30 1
    46    14     2 ar
    47     4     6 ar
    48     2     6 ar
    49     1    41 1
    50     2    42 1
    51     3    43 1
    52     4    44 1
    53     5    45 1
    54     6    46 1
    55     7    47 1
    56     8    48 1
    57     9    49 1
    58    10    50 1
    59    11    51 1
    60    12    52 1
    61    22    53 1
    62    22    54 1
    63    23    55 1
    64    23    56 1
    65    24    57 1
    66    24    58 1
    67    25    59 1
    68    25    60 1
    69    26    61 1
    70    26    62 1
    71    27    63 1
    72    27    64 1
    73    28    65 1
    74    28    66 1
    75    29    67 1
    76    29    68 1
    77    30    69 1
    78    30    70 1
    79    30    71 1
    80    31    72 1
    81    31    73 1
    82    32    74 1
    83    32    75 1
    84    33    76 1
    85    33    77 1
    86    84    78 1
    87    84    79 1
    88    85    80 1
    89    85    81 1
    90    39    82 1
@<TRIPOS>SUBSTRUCTURE
     1 3UJ         1 TEMP              0 ****  ****    0 ROOT
