@<TRIPOS>MOLECULE
molecule
   50    53     1     0     0
SMALL
bcc


@<TRIPOS>ATOM
      1 C10          0.0000     0.0000     0.0000 c3         1 3UK       0.256800
      2 C15         -0.7500    -0.1150    -2.4150 ca         1 3UK       0.444800
      3 C17         -0.9280    -1.7370    -4.0340 ca         1 3UK       0.685900
      4 C21          1.5500     0.0000     0.0000 c3         1 3UK       0.087100
      5 C26         -3.4140     5.1820     6.3420 ca         1 3UK      -0.202600
      6 C28         -5.7580     4.6610     6.4240 ca         1 3UK      -0.217000
      7 O01         -1.1420     5.6460     6.0950 o          1 3UK      -0.524000
      8 C02         -2.0580     4.8860     5.8490 c          1 3UK       0.713700
      9 O03         -1.8320     3.7710     5.1250 os         1 3UK      -0.544500
     10 P04         -0.3240     3.5180     4.6230 p5         1 3UK       1.330800
     11 O05          0.1480     4.6980     3.8640 o          1 3UK      -0.795000
     12 O06         -0.2840     2.2190     3.6740 os         1 3UK      -0.594200
     13 C07          0.8940     1.7930     2.9860 c3         1 3UK       0.233400
     14 C08          0.5840     0.5320     2.1760 c3         1 3UK       0.117100
     15 O09         -0.3400     0.8430     1.1200 os         1 3UK      -0.392600
     16 N11         -0.5150     0.5680    -1.2490 na         1 3UK      -0.250000
     17 C12         -0.8510     1.8710    -1.4650 cc         1 3UK       0.461700
     18 N13         -1.2740     2.0260    -2.6850 nd         1 3UK      -0.596100
     19 C14         -1.2370     0.8340    -3.3290 ca         1 3UK      -0.153200
     20 N16         -0.6120    -1.3780    -2.8080 nb         1 3UK      -0.734000
     21 N18         -1.3890    -0.8820    -4.9280 nb         1 3UK      -0.783000
     22 C19         -1.5590     0.4010    -4.6270 ca         1 3UK       0.761200
     23 N20         -2.0430     1.2920    -5.5700 nv         1 3UK      -1.072500
     24 O22          2.0600    -1.1770    -0.6300 oh         1 3UK      -0.566800
     25 C23          1.8740     0.0000     1.5140 c3         1 3UK       0.084100
     26 O24          2.1570    -1.3250     1.9660 oh         1 3UK      -0.578800
     27 O25          0.6330     3.2830     5.8960 o          1 3UK      -0.795000
     28 C27         -4.4920     4.3780     5.9590 ca         1 3UK      -0.031000
     29 C29         -5.9700     5.7380     7.2690 ca         1 3UK      -0.074000
     30 C30         -4.9150     6.5380     7.6600 ca         1 3UK      -0.236000
     31 C31         -3.6310     6.2690     7.2030 ca         1 3UK       0.254600
     32 N32         -2.5690     7.0720     7.5940 nv         1 3UK      -0.912200
     33 H1          -0.3780    -1.0030     0.1530 h2         1 3UK       0.107700
     34 H2          -0.8040    -2.7740    -4.3210 h5         1 3UK       0.055100
     35 H3           1.9330     0.8960    -0.4730 h1         1 3UK       0.057700
     36 H4          -6.5930     4.0390     6.1260 ha         1 3UK       0.119000
     37 H5           1.6740     1.5780     3.7050 h1         1 3UK       0.041700
     38 H6           1.2250     2.5790     2.3180 h1         1 3UK       0.041700
     39 H7           0.1610    -0.2300     2.8190 h1         1 3UK       0.085700
     40 H8          -0.7770     2.6620    -0.7280 h5         1 3UK       0.105800
     41 H9          -1.4090     1.7680    -6.1800 hn         1 3UK       0.438800
     42 H10         -3.0300     1.4280    -5.6680 hn         1 3UK       0.438800
     43 H11          2.9070    -0.9920    -1.0020 ho         1 3UK       0.398000
     44 H12          2.7050     0.6630     1.7220 h1         1 3UK       0.053700
     45 H13          3.0030    -1.3420     2.3820 ho         1 3UK       0.402000
     46 H15         -4.3330     3.5350     5.2990 ha         1 3UK       0.151000
     47 H16         -6.9690     5.9510     7.6290 ha         1 3UK       0.113000
     48 H17         -5.0890     7.3770     8.3230 ha         1 3UK       0.121000
     49 H18         -2.7290     8.0290     7.8390 hn         1 3UK       0.444800
     50 H19         -1.6420     6.6960     7.6260 hn         1 3UK       0.444800
@<TRIPOS>BOND
     1    26    25 1   
     2    32    31 1   
     3    30    31 ar  
     4    30    29 ar  
     5    11    10 1   
     6    31     5 ar  
     7    29     6 ar  
     8    25    14 1   
     9    25     4 1   
    10    13    14 1   
    11    13    12 1   
    12     9    10 1   
    13     9     8 1   
    14    10    12 1   
    15    10    27 1   
    16     5     8 1   
    17     5    28 ar  
    18     6    28 ar  
    19    14    15 1   
    20     4    24 1   
    21     4     1 1   
    22     8     7 2   
    23    15     1 1   
    24     1    16 1   
    25    17    16 1   
    26    17    18 2   
    27    16     2 1   
    28    18    19 1   
    29     2    19 ar  
    30     2    20 ar  
    31    19    22 ar  
    32    20     3 ar  
    33    22    23 1   
    34    22    21 ar  
    35     3    21 ar  
    36     1    33 1   
    37     3    34 1   
    38     4    35 1   
    39     6    36 1   
    40    13    37 1   
    41    13    38 1   
    42    14    39 1   
    43    17    40 1   
    44    23    41 1   
    45    23    42 1   
    46    24    43 1   
    47    25    44 1   
    48    26    45 1   
    49    28    46 1   
    50    29    47 1   
    51    30    48 1   
    52    32    49 1   
    53    32    50 1   
@<TRIPOS>SUBSTRUCTURE
     1 3UK         1 TEMP              0 ****  ****    0 ROOT
