@<TRIPOS>MOLECULE
3UL
   43    45     1     0     0
SMALL
bcc


@<TRIPOS>ATOM
      1 C1           0.0000     0.0000     0.0000 ca         1 3UL      -0.187600
      2 C2           1.3980     0.0000     0.0000 ca         1 3UL      -0.221300
      3 C3           2.0680     0.0000     1.2080 ca         1 3UL       0.414700
      4 C4           0.0880    -0.0020     2.3930 ca         1 3UL       0.414700
      5 C5          -0.6600    -0.0010     1.2330 ca         1 3UL      -0.221300
      6 C6          -2.8270    -0.0840    -2.4490 ca         1 3UL      -0.094400
      7 C8          -3.0540     0.4330    -4.7800 ca         1 3UL      -0.251300
      8 C9          -2.5180     1.0820    -6.0290 c3         1 3UL       0.666200
      9 C12         -4.0400    -0.7730    -2.4880 ca         1 3UL      -0.052400
     10 F2          -3.5410     1.8020    -6.6570 f          1 3UL      -0.200300
     11 F           -1.7120     0.2320    -6.5840 f          1 3UL      -0.200300
     12 F1          -1.8940     2.2870    -5.2690 f          1 3UL      -0.200300
     13 C7          -2.3390     0.5170    -3.5990 ca         1 3UL      -0.063000
     14 C10         -4.2500    -0.2580    -4.8210 ca         1 3UL      -0.064000
     15 C11         -4.7470    -0.8570    -3.6770 ca         1 3UL      -0.109000
     16 N2          -3.7400    -2.0040    -1.4130 nh         1 3UL      -0.427000
     17 C17         -2.9120    -3.0830    -2.3370 c3         1 3UL       0.155300
     18 C16         -3.4210    -3.7100    -3.5060 c3         1 3UL      -0.071400
     19 C15         -4.8510    -4.3820    -2.9330 c3         1 3UL      -0.060400
     20 C14         -5.9420    -3.0970    -2.3960 c3         1 3UL      -0.071400
     21 C13         -5.1420    -2.1990    -1.3280 c3         1 3UL       0.155300
     22 N1          -2.1090     0.0050    -1.2490 ns         1 3UL      -0.028100
     23 C           -0.7610     0.0060    -1.2710 c          1 3UL       0.607700
     24 O           -0.1700     0.0120    -2.3330 o          1 3UL      -0.627100
     25 N            1.4060    -0.0010     2.3480 nb         1 3UL      -0.514000
     26 H1           1.5210    -0.0780    -1.0730 ha         1 3UL       0.142000
     27 H2           3.1230    -0.0830     0.9800 h4         1 3UL      -0.010400
     28 H3          -0.6850     0.0490     3.1510 h4         1 3UL      -0.010400
     29 H4          -1.7190     0.1280     1.0430 ha         1 3UL       0.142000
     30 H5          -1.7400     1.4100    -3.7300 ha         1 3UL       0.168000
     31 H6          -4.4110    -0.5900    -5.8390 ha         1 3UL       0.110000
     32 H7          -5.6280    -1.4820    -3.5960 ha         1 3UL       0.168000
     33 H8          -1.9350    -2.6160    -2.3260 h1         1 3UL       0.015450
     34 H9          -2.7560    -3.7090    -1.4670 h1         1 3UL       0.015450
     35 H10         -2.9580    -4.6810    -3.6380 hc         1 3UL       0.050450
     36 H11         -3.5760    -2.9570    -4.2690 hc         1 3UL       0.050450
     37 H12         -4.5960    -5.0970    -2.1590 hc         1 3UL       0.035700
     38 H13         -5.4120    -4.5430    -3.8450 hc         1 3UL       0.035700
     39 H14         -5.9240    -2.3540    -3.1840 hc         1 3UL       0.050450
     40 H15         -6.8840    -3.6270    -2.3200 hc         1 3UL       0.050450
     41 H16         -5.0910    -3.0020    -0.6030 h1         1 3UL       0.015450
     42 H17         -5.7430    -1.5070    -0.7510 h1         1 3UL       0.015450
     43 H18         -2.8380    -0.0370    -0.5650 hn         1 3UL       0.206500
@<TRIPOS>BOND
     1     1     2 ar  
     2     1     5 ar  
     3     1    23 1   
     4     2     3 ar  
     5     2    26 1   
     6     3    25 ar  
     7     3    27 1   
     8     4     5 ar  
     9     4    25 ar  
    10     4    28 1   
    11     5    29 1   
    12     6     9 ar  
    13     6    13 ar  
    14     6    22 1   
    15     7     8 1   
    16     7    13 ar  
    17     7    14 ar  
    18     8    10 1   
    19     8    11 1   
    20     8    12 1   
    21     9    15 ar  
    22     9    16 1   
    23    13    30 1   
    24    14    15 ar  
    25    14    31 1   
    26    15    32 1   
    27    16    17 1   
    28    16    21 1   
    29    17    18 1   
    30    17    33 1   
    31    17    34 1   
    32    18    19 1   
    33    18    35 1   
    34    18    36 1   
    35    19    20 1   
    36    19    37 1   
    37    19    38 1   
    38    20    21 1   
    39    20    39 1   
    40    20    40 1   
    41    21    41 1   
    42    21    42 1   
    43    22    23 1   
    44    22    43 1   
    45    23    24 2   
@<TRIPOS>SUBSTRUCTURE
     1 3UL         1 TEMP              0 ****  ****    0 ROOT
