@<TRIPOS>MOLECULE
3UM
   53    55     1     0     0
SMALL
bcc


@<TRIPOS>ATOM
      1 C1          0.0610    0.1770   -0.1400 c3        1 3UM      0.160800
      2 C2          1.6020   -0.0240   -0.0830 c3        1 3UM     -0.184000
      3 C3         -0.4800    1.4010    0.6620 c3        1 3UM     -0.006000
      4 O1         -0.5250   -0.9580    0.5430 oh        1 3UM     -0.624800
      5 O2         -0.3070    1.3360   -2.3450 oh        1 3UM     -0.635800
      6 O3          3.1350    1.8630   -0.3410 o         1 3UM     -0.834800
      7 C11        -2.0680    0.0510   -1.4700 c3        1 3UM     -0.069400
      8 C12         1.5660    1.2340    2.1210 c3        1 3UM     -0.078400
      9 C13        -2.6730    1.1830   -0.6580 c3        1 3UM     -0.045700
     10 C14        -2.6260    2.4690    1.4910 c3        1 3UM     -0.051200
     11 C15        -4.1960    1.0160   -0.5700 c3        1 3UM     -0.018500
     12 C16        -4.0750    2.6630    1.2810 c2        1 3UM     -0.134200
     13 C17        -4.8070    2.0380    0.3400 ce        1 3UM     -0.103200
     14 C18        -4.6210   -0.3770   -0.1390 c3        1 3UM     -0.085100
     15 C19        -6.2220    2.3510    0.1920 ce        1 3UM     -0.107000
     16 C20        -7.0580    1.8210   -0.7030 c2        1 3UM     -0.240000
     17 C4         -0.5460    0.1790   -1.5740 c3        1 3UM      0.148100
     18 C5          2.0530    0.0120    1.3790 c3        1 3UM     -0.040400
     19 C6          2.4520    0.9800   -0.9270 c         1 3UM      0.917600
     20 C7          1.9920   -1.3990   -0.6300 c3        1 3UM     -0.078100
     21 C8         -2.0270    1.2970    0.7220 c3        1 3UM     -0.047700
     22 C9          0.0570    1.3180    2.0960 c3        1 3UM     -0.064400
     23 C10        -0.0430    2.7210    0.0450 c3        1 3UM     -0.106100
     24 O4          2.4670    0.8210   -2.1860 o         1 3UM     -0.834800
     25 H1         -0.3400   -1.7340    0.0030 ho        1 3UM      0.388000
     26 H2          0.6540    1.4360   -2.4470 ho        1 3UM      0.461000
     27 H4         -2.5060    0.0630   -2.5020 hc        1 3UM      0.037200
     28 H5         -2.3020   -0.9380   -0.9970 hc        1 3UM      0.037200
     29 H6          1.9160    1.1890    3.1860 hc        1 3UM      0.046200
     30 H7          2.0160    2.1480    1.6450 hc        1 3UM      0.046200
     31 H8         -2.4760    2.1440   -1.2160 hc        1 3UM      0.066700
     32 H9         -2.1150    3.4270    1.1940 hc        1 3UM      0.052200
     33 H10        -2.4330    2.3200    2.5890 hc        1 3UM      0.052200
     34 H11        -4.5970    1.1910   -1.6110 hc        1 3UM      0.043700
     35 H12        -4.5420    3.4060    1.9490 ha        1 3UM      0.103000
     36 H13        -4.0470   -0.7090    0.7590 hc        1 3UM      0.032033
     37 H14        -5.7110   -0.3890    0.1100 hc        1 3UM      0.032033
     38 H15        -4.4440   -1.1080   -0.9640 hc        1 3UM      0.032033
     39 H16        -6.6000    3.1090    0.9050 ha        1 3UM      0.106000
     40 H17        -6.7550    1.0650   -1.4380 ha        1 3UM      0.107000
     41 H18        -8.1130    2.1180   -0.7530 ha        1 3UM      0.107000
     42 H19        -0.1380   -0.7180   -2.1250 h1        1 3UM      0.024700
     43 H20         3.1740   -0.0060    1.4010 hc        1 3UM      0.027700
     44 H21         1.6730   -0.9100    1.8970 hc        1 3UM      0.027700
     45 H22         1.5770   -2.2320   -0.0130 hc        1 3UM      0.025033
     46 H23         3.1060   -1.4860   -0.6190 hc        1 3UM      0.025033
     47 H24         1.6550   -1.5090   -1.6880 hc        1 3UM      0.025033
     48 H25        -2.2660    0.3500    1.2870 hc        1 3UM      0.059700
     49 H26        -0.2750    2.2210    2.6720 hc        1 3UM      0.025200
     50 H27        -0.3780    0.4120    2.5940 hc        1 3UM      0.025200
     51 H28        -0.0980    3.5400    0.8030 hc        1 3UM      0.049367
     52 H29         1.0160    2.6620   -0.3130 hc        1 3UM      0.049367
     53 H30        -0.6860    2.9950   -0.8250 hc        1 3UM      0.049367
@<TRIPOS>BOND
     1    1    2 1   
     2    1    3 1   
     3    1    4 1   
     4    1   17 1   
     5    2   18 1   
     6    2   19 1   
     7    2   20 1   
     8    3   21 1   
     9    3   22 1   
    10    3   23 1   
    11    4   25 1   
    12    5   17 1   
    13    5   26 1   
    14    6   19 1   
    15    7    9 1   
    16    7   17 1   
    17    7   27 1   
    18    7   28 1   
    19    8   18 1   
    20    8   22 1   
    21    8   29 1   
    22    8   30 1   
    23    9   11 1   
    24    9   21 1   
    25    9   31 1   
    26   10   12 1   
    27   10   21 1   
    28   10   32 1   
    29   10   33 1   
    30   11   13 1   
    31   11   14 1   
    32   11   34 1   
    33   12   13 2   
    34   12   35 1   
    35   13   15 1   
    36   14   36 1   
    37   14   37 1   
    38   14   38 1   
    39   15   16 2   
    40   15   39 1   
    41   16   40 1   
    42   16   41 1   
    43   17   42 1   
    44   18   43 1   
    45   18   44 1   
    46   19   24 1   
    47   20   45 1   
    48   20   46 1   
    49   20   47 1   
    50   21   48 1   
    51   22   49 1   
    52   22   50 1   
    53   23   51 1   
    54   23   52 1   
    55   23   53 1   
@<TRIPOS>SUBSTRUCTURE
     1 3UM         1 TEMP              0 ****  ****    0 ROOT
