@<TRIPOS>MOLECULE
molecule
   64    64     1     0     0
SMALL
bcc


@<TRIPOS>ATOM
      1 N            0.0000     0.0000     0.0000 nu         1 3UN      -0.785500
      2 O48          4.9850    -3.1350    -1.1200 o          1 3UN      -0.486500
      3 C36          5.6790    -2.1520    -1.2310 c          1 3UN       0.640600
      4 O49          6.0030    -1.6940    -2.4490 os         1 3UN      -0.449900
      5 C51          5.5190    -2.3790    -3.6350 c3         1 3UN       0.155400
      6 C54          6.0290    -1.6570    -4.8840 c3         1 3UN      -0.096100
      7 C11          6.1810    -1.4420     0.0000 c3         1 3UN      -0.128000
      8 C15          7.7110    -1.4420     0.0000 c3         1 3UN      -0.094400
      9 C44          8.2210    -2.8850    -0.0000 c3         1 3UN       0.124000
     10 N39          9.6860    -2.8840     0.0000 ns         1 3UN      -0.573900
     11 C37         10.3610    -4.0510    -0.0000 c          1 3UN       0.755100
     12 O38          9.7530    -5.1040    -0.0000 o          1 3UN      -0.613000
     13 O19         11.7060    -4.0510    -0.0000 os         1 3UN      -0.454900
     14 C20         12.4330    -5.3090    -0.0000 c3         1 3UN       0.187800
     15 C23         12.0630    -6.1110    -1.2490 c3         1 3UN      -0.106100
     16 C22         13.9380    -5.0290    -0.0010 c3         1 3UN      -0.106100
     17 C21         12.0630    -6.1110     1.2490 c3         1 3UN      -0.106100
     18 C14          5.6790    -2.1530     1.2300 c          1 3UN       0.640600
     19 O47          6.0030    -1.6940     2.4500 os         1 3UN      -0.449900
     20 C50          5.5190    -2.3790     3.6350 c3         1 3UN       0.155400
     21 C60          6.0290    -1.6590     4.8840 c3         1 3UN      -0.096100
     22 O46          4.9840    -3.1360     1.1190 o          1 3UN      -0.486500
     23 C35          5.6710     0.0000     0.0010 c3         1 3UN      -0.009100
     24 C2           4.1640     0.0000     0.0000 ca         1 3UN      -0.166300
     25 C5           3.4740     0.0000     1.1990 ca         1 3UN      -0.105500
     26 C4           2.0930    -0.0010     1.2030 ca         1 3UN      -0.162500
     27 C6           3.4740     0.0060    -1.1980 ca         1 3UN      -0.105500
     28 C3           2.0940     0.0000    -1.2020 ca         1 3UN      -0.162500
     29 C1           1.3960    -0.0010     0.0010 ca         1 3UN       0.228600
     30 S12         -0.8280     1.0140    -1.0130 s6         1 3UN       1.437700
     31 O17         -0.2220     2.2900    -0.8620 o          1 3UN      -0.720200
     32 O18         -2.2050     0.7270    -0.8080 o          1 3UN      -0.720200
     33 O34         -0.5240     0.5780    -2.4400 o          1 3UN      -0.720200
     34 HN          -0.5010    -0.6240     0.6010 hn         1 3UN       0.428800
     35 H511         4.4360    -2.3790    -3.6350 h1         1 3UN       0.050950
     36 H512         5.8810    -3.4000    -3.6350 h1         1 3UN       0.050950
     37 H541         7.1050    -1.7660    -4.9500 hc         1 3UN       0.044200
     38 H542         5.5680    -2.0890    -5.7640 hc         1 3UN       0.044200
     39 H543         5.7760    -0.6060    -4.8220 hc         1 3UN       0.044200
     40 H151         8.0720    -0.9320     0.8850 hc         1 3UN       0.064700
     41 H152         8.0730    -0.9310    -0.8840 hc         1 3UN       0.064700
     42 H441         7.8600    -3.3960     0.8840 h1         1 3UN       0.064700
     43 H442         7.8610    -3.3950    -0.8850 h1         1 3UN       0.064700
     44 H39         10.1860    -2.0170     0.0010 hn         1 3UN       0.319500
     45 H231        11.9660    -5.4390    -2.0940 hc         1 3UN       0.048478
     46 H232        12.8390    -6.8380    -1.4540 hc         1 3UN       0.048478
     47 H233        11.1230    -6.6230    -1.0850 hc         1 3UN       0.048478
     48 H221        14.2000    -4.4670    -0.8890 hc         1 3UN       0.048478
     49 H222        14.1980    -4.4540     0.8800 hc         1 3UN       0.048478
     50 H223        14.4790    -5.9670     0.0070 hc         1 3UN       0.048478
     51 H211        11.9620    -5.4400     2.0930 hc         1 3UN       0.048478
     52 H212        11.1250    -6.6270     1.0820 hc         1 3UN       0.048478
     53 H213        12.8410    -6.8360     1.4550 hc         1 3UN       0.048478
     54 H501         4.4360    -2.3790     3.6350 h1         1 3UN       0.050950
     55 H502         5.8800    -3.4010     3.6350 h1         1 3UN       0.050950
     56 H601         5.7580    -2.2270     5.7650 hc         1 3UN       0.044200
     57 H602         5.5840    -0.6730     4.9400 hc         1 3UN       0.044200
     58 H603         7.1070    -1.5660     4.8320 hc         1 3UN       0.044200
     59 H351         6.0320     0.5120    -0.8830 hc         1 3UN       0.059700
     60 H352         6.0310     0.5100     0.8860 hc         1 3UN       0.059700
     61 H5           4.0180    -0.0000     2.1360 ha         1 3UN       0.116500
     62 H4           1.5530    -0.0010     2.1420 ha         1 3UN       0.157500
     63 H6           4.0170     0.0070    -2.1360 ha         1 3UN       0.116500
     64 H3           1.5540     0.0050    -2.1410 ha         1 3UN       0.157500
@<TRIPOS>BOND
     1     1    29 1   
     2     1    30 1   
     3     1    34 1   
     4     2     3 2   
     5     3     4 1   
     6     3     7 1   
     7     4     5 1   
     8     5     6 1   
     9     5    35 1   
    10     5    36 1   
    11     6    37 1   
    12     6    38 1   
    13     6    39 1   
    14     7     8 1   
    15     7    18 1   
    16     7    23 1   
    17     8     9 1   
    18     8    40 1   
    19     8    41 1   
    20     9    10 1   
    21     9    42 1   
    22     9    43 1   
    23    10    11 1   
    24    10    44 1   
    25    11    12 2   
    26    11    13 1   
    27    13    14 1   
    28    14    15 1   
    29    14    16 1   
    30    14    17 1   
    31    15    45 1   
    32    15    46 1   
    33    15    47 1   
    34    16    48 1   
    35    16    49 1   
    36    16    50 1   
    37    17    51 1   
    38    17    52 1   
    39    17    53 1   
    40    18    19 1   
    41    18    22 2   
    42    19    20 1   
    43    20    21 1   
    44    20    54 1   
    45    20    55 1   
    46    21    56 1   
    47    21    57 1   
    48    21    58 1   
    49    23    24 1   
    50    23    59 1   
    51    23    60 1   
    52    24    25 ar  
    53    24    27 ar  
    54    25    26 ar  
    55    25    61 1   
    56    26    29 ar  
    57    26    62 1   
    58    27    28 ar  
    59    27    63 1   
    60    28    29 ar  
    61    28    64 1   
    62    30    31 1   
    63    30    32 1   
    64    30    33 1   
@<TRIPOS>SUBSTRUCTURE
     1 3UN         1 TEMP              0 ****  ****    0 ROOT
