@<TRIPOS>MOLECULE
molecule
   39    41     1     0     0
SMALL
bcc


@<TRIPOS>ATOM
      1 C1           0.0000     0.0000     0.0000 ca         1 3UO      -0.084600
      2 C2           1.3960     0.0000     0.0000 ca         1 3UO      -0.239300
      3 C3           2.0690     0.0000     1.2160 ca         1 3UO       0.554200
      4 N4           1.4010     0.0000     2.3580 nb         1 3UO      -0.670000
      5 C5           0.0820     0.0010     2.3960 ca         1 3UO       0.452200
      6 C6          -0.6620     0.0070     1.2340 ca         1 3UO      -0.274300
      7 C7          -0.7610     0.0000    -1.2710 c          1 3UO       0.674700
      8 N8           3.4630    -0.0010     1.2320 ns         1 3UO      -0.549400
      9 N9          -2.1090     0.0010    -1.2500 ns         1 3UO      -0.453100
     10 O10         -0.1700    -0.0000    -2.3330 o          1 3UO      -0.593100
     11 C11          4.1220     0.1020     2.4030 c          1 3UO       0.683100
     12 C12          5.6260     0.2160     2.4130 cx         1 3UO      -0.241700
     13 O13          3.5070     0.1030     3.4480 o          1 3UO      -0.531100
     14 C14          6.3160     0.3280     3.7730 cx         1 3UO      -0.107900
     15 C15          6.4200    -0.9680     2.9700 cx         1 3UO      -0.107900
     16 C16         -2.8280    -0.1170    -2.4460 ca         1 3UO      -0.091700
     17 C17         -2.2580    -0.7270    -3.5520 ca         1 3UO       0.441200
     18 N18         -2.9320    -0.8390    -4.6810 nb         1 3UO      -0.696000
     19 C19         -4.1640    -0.3830    -4.8060 ca         1 3UO       0.433200
     20 C20         -4.8030     0.2370    -3.7510 ca         1 3UO      -0.327300
     21 C21         -4.1340     0.3740    -2.5400 ca         1 3UO       0.131100
     22 O22         -4.7320     0.9740    -1.4780 os         1 3UO      -0.335900
     23 C23         -6.0670     1.4440    -1.6660 c3         1 3UO       0.130700
     24 H1           1.9460    -0.0030    -0.9330 ha         1 3UO       0.161000
     25 H2          -0.4240     0.0040     3.3540 h4         1 3UO       0.033100
     26 H3          -1.7440     0.0080     1.2750 ha         1 3UO       0.135000
     27 H4           3.9730    -0.1090     0.3780 hn         1 3UO       0.335500
     28 H5          -2.5930     0.1830    -0.3930 hn         1 3UO       0.338500
     29 H6           6.1160     0.7530     1.6100 hc         1 3UO       0.088700
     30 H7           7.2110     0.9380     3.7940 hc         1 3UO       0.085450
     31 H8           5.6600     0.2930     4.6350 hc         1 3UO       0.085450
     32 H9           7.3780    -1.1510     2.4990 hc         1 3UO       0.085450
     33 H10          5.8270    -1.7960     3.3400 hc         1 3UO       0.085450
     34 H11         -1.2480    -1.1150    -3.4900 h4         1 3UO       0.068100
     35 H12         -4.6800    -0.4940    -5.7520 h4         1 3UO       0.024100
     36 H13         -5.8150     0.6070    -3.8630 ha         1 3UO       0.143000
     37 H14         -6.7090     0.6130    -1.9320 h1         1 3UO       0.045367
     38 H15         -6.4230     1.8960    -0.7480 h1         1 3UO       0.045367
     39 H16         -6.0820     2.1810    -2.4600 h1         1 3UO       0.045367
@<TRIPOS>BOND
     1     5     4 ar  
     2     5     6 ar  
     3     4     3 ar  
     4     6     1 ar  
     5     3     8 1   
     6     3     2 ar  
     7     1     2 ar  
     8     1     7 1   
     9     8    11 1   
    10    10     7 2   
    11     7     9 1   
    12    12    11 1   
    13    12    14 1   
    14    12    15 1   
    15    11    13 2   
    16    14    15 1   
    17     9    16 1   
    18    17    16 ar  
    19    17    18 ar  
    20    16    21 ar  
    21    18    19 ar  
    22    21    22 1   
    23    21    20 ar  
    24    22    23 1   
    25    19    20 ar  
    26     2    24 1   
    27     5    25 1   
    28     6    26 1   
    29     8    27 1   
    30     9    28 1   
    31    12    29 1   
    32    14    30 1   
    33    14    31 1   
    34    15    32 1   
    35    15    33 1   
    36    17    34 1   
    37    19    35 1   
    38    20    36 1   
    39    23    37 1   
    40    23    38 1   
    41    23    39 1   
@<TRIPOS>SUBSTRUCTURE
     1 3UO         1 TEMP              0 ****  ****    0 ROOT
