@<TRIPOS>MOLECULE
3UO
   39    41     1     0     0
SMALL
bcc


@<TRIPOS>ATOM
      1 C1           0.0000     0.0000     0.0000 ca         1 3UO      -0.100600
      2 C2           1.3960     0.0000     0.0000 ca         1 3UO      -0.203300
      3 C3           2.0690     0.0000     1.2160 ca         1 3UO       0.356200
      4 N4           1.4010     0.0000     2.3580 nb         1 3UO      -0.542000
      5 C5           0.0820     0.0010     2.3960 ca         1 3UO       0.431200
      6 C6          -0.6620     0.0070     1.2340 ca         1 3UO      -0.245300
      7 C7          -0.7610     0.0000    -1.2710 c          1 3UO       0.580700
      8 N8           3.4630    -0.0010     1.2320 ns         1 3UO      -0.111400
      9 N9          -2.1090     0.0010    -1.2500 ns         1 3UO      -0.003100
     10 O10         -0.1700    -0.0000    -2.3330 o          1 3UO      -0.635100
     11 C11          4.1220     0.1020     2.4030 c          1 3UO       0.586100
     12 C12          5.6260     0.2160     2.4130 cx         1 3UO      -0.222700
     13 O13          3.5070     0.1030     3.4480 o          1 3UO      -0.572100
     14 C14          6.3160     0.3280     3.7730 cx         1 3UO      -0.049400
     15 C15          6.4200    -0.9680     2.9700 cx         1 3UO      -0.049400
     16 C16         -2.8280    -0.1170    -2.4460 ca         1 3UO      -0.244700
     17 C17         -2.2580    -0.7270    -3.5520 ca         1 3UO       0.420200
     18 N18         -2.9320    -0.8390    -4.6810 nb         1 3UO      -0.594000
     19 C19         -4.1640    -0.3830    -4.8060 ca         1 3UO       0.429200
     20 C20         -4.8030     0.2370    -3.7510 ca         1 3UO      -0.312300
     21 C21         -4.1340     0.3740    -2.5400 ca         1 3UO       0.142100
     22 O22         -4.7320     0.9740    -1.4780 os         1 3UO      -0.316900
     23 C23         -6.0670     1.4440    -1.6660 c3         1 3UO       0.250700
     24 H1           1.9460    -0.0030    -0.9330 ha         1 3UO       0.138000
     25 H2          -0.4240     0.0040     3.3540 h4         1 3UO      -0.015900
     26 H3          -1.7440     0.0080     1.2750 ha         1 3UO       0.114000
     27 H4           3.9730    -0.1090     0.3780 hn         1 3UO       0.174500
     28 H5          -2.5930     0.1830    -0.3930 hn         1 3UO       0.181500
     29 H6           6.1160     0.7530     1.6100 hc         1 3UO       0.063700
     30 H7           7.2110     0.9380     3.7940 hc         1 3UO       0.052450
     31 H8           5.6600     0.2930     4.6350 hc         1 3UO       0.052450
     32 H9           7.3780    -1.1510     2.4990 hc         1 3UO       0.052450
     33 H10          5.8270    -1.7960     3.3400 hc         1 3UO       0.052450
     34 H11         -1.2480    -1.1150    -3.4900 h4         1 3UO       0.031100
     35 H12         -4.6800    -0.4940    -5.7520 h4         1 3UO      -0.021900
     36 H13         -5.8150     0.6070    -3.8630 ha         1 3UO       0.128000
     37 H14         -6.7090     0.6130    -1.9320 h1         1 3UO       0.000700
     38 H15         -6.4230     1.8960    -0.7480 h1         1 3UO       0.000700
     39 H16         -6.0820     2.1810    -2.4600 h1         1 3UO       0.000700
@<TRIPOS>BOND
     1     1     2 ar  
     2     1     6 ar  
     3     1     7 1   
     4     2     3 ar  
     5     2    24 1   
     6     3     4 ar  
     7     3     8 1   
     8     4     5 ar  
     9     5     6 ar  
    10     5    25 1   
    11     6    26 1   
    12     7     9 1   
    13     7    10 2   
    14     8    11 1   
    15     8    27 1   
    16     9    16 1   
    17     9    28 1   
    18    11    12 1   
    19    11    13 2   
    20    12    14 1   
    21    12    15 1   
    22    12    29 1   
    23    14    15 1   
    24    14    30 1   
    25    14    31 1   
    26    15    32 1   
    27    15    33 1   
    28    16    17 ar  
    29    16    21 ar  
    30    17    18 ar  
    31    17    34 1   
    32    18    19 ar  
    33    19    20 ar  
    34    19    35 1   
    35    20    21 ar  
    36    20    36 1   
    37    21    22 1   
    38    22    23 1   
    39    23    37 1   
    40    23    38 1   
    41    23    39 1   
@<TRIPOS>SUBSTRUCTURE
     1 3UO         1 TEMP              0 ****  ****    0 ROOT
