@<TRIPOS>MOLECULE
3UP
   45    48     1     0     0
SMALL
bcc


@<TRIPOS>ATOM
      1 C1           0.0000     0.0000     0.0000 ca         1 3UP      -0.102600
      2 C2           1.3960     0.0000     0.0000 ca         1 3UP      -0.202300
      3 C3           2.0680     0.0000     1.2170 ca         1 3UP       0.356200
      4 N4           1.4000     0.0010     2.3580 nb         1 3UP      -0.540000
      5 C5           0.0820     0.0010     2.3960 ca         1 3UP       0.431200
      6 C6          -0.6620     0.0070     1.2340 ca         1 3UP      -0.248300
      7 C7          -0.7600     0.0000    -1.2710 c          1 3UP       0.582700
      8 N8           3.4630    -0.0000     1.2330 ns         1 3UP      -0.111400
      9 N9          -2.1080     0.0010    -1.2500 ns         1 3UP      -0.025100
     10 O10         -0.1690    -0.0000    -2.3330 o          1 3UP      -0.631100
     11 C11          4.1220     0.1030     2.4040 c          1 3UP       0.586100
     12 C12          5.6250     0.2180     2.4150 cx         1 3UP      -0.221700
     13 O13          3.5060     0.1050     3.4490 o          1 3UP      -0.573100
     14 C14          6.3150     0.3330     3.7750 cx         1 3UP      -0.048900
     15 C15          6.2280     1.5530     2.8560 cx         1 3UP      -0.048900
     16 C16         -2.8250    -0.0940    -2.4460 ca         1 3UP      -0.201700
     17 C17         -2.3430     0.4970    -3.6060 ca         1 3UP       0.402200
     18 N18         -3.0170     0.4110    -4.7360 nb         1 3UP      -0.565000
     19 C19         -4.1660    -0.2320    -4.8190 ca         1 3UP       0.390200
     20 C20         -4.7190    -0.8490    -3.7150 ca         1 3UP      -0.197300
     21 C21         -4.0420    -0.7910    -2.4950 cp         1 3UP      -0.035000
     22 C22         -4.5970    -1.4430    -1.2840 cp         1 3UP      -0.046000
     23 C23         -3.7920    -2.2790    -0.5100 ca         1 3UP      -0.097000
     24 C24         -4.3130    -2.8820     0.6160 ca         1 3UP      -0.097500
     25 C25         -5.6300    -2.6620     0.9770 ca         1 3UP      -0.095000
     26 C26         -6.4330    -1.8340     0.2110 ca         1 3UP      -0.097500
     27 C27         -5.9210    -1.2200    -0.9130 ca         1 3UP      -0.097000
     28 H1           1.9470    -0.0030    -0.9330 ha         1 3UP       0.138000
     29 H2          -0.4240     0.0040     3.3530 h4         1 3UP      -0.014900
     30 H3          -1.7440     0.0080     1.2750 ha         1 3UP       0.114000
     31 H4           3.9730    -0.1150     0.3800 hn         1 3UP       0.174500
     32 H5          -2.5920    -0.0370    -0.3750 hn         1 3UP       0.185500
     33 H6           6.1960    -0.3100     1.6600 hc         1 3UP       0.061700
     34 H7           7.2910    -0.1310     3.8450 hc         1 3UP       0.052450
     35 H8           5.6550     0.3480     4.6340 hc         1 3UP       0.052450
     36 H9           7.1520     1.8340     2.3640 hc         1 3UP       0.052450
     37 H10          5.5160     2.3130     3.1540 hc         1 3UP       0.052450
     38 H11         -1.4030     1.0350    -3.5820 h4         1 3UP       0.022100
     39 H12         -4.6850    -0.2750    -5.7690 h4         1 3UP      -0.019900
     40 H13         -5.6620    -1.3760    -3.7950 ha         1 3UP       0.118000
     41 H14         -2.7610    -2.4530    -0.7910 ha         1 3UP       0.112500
     42 H15         -3.6900    -3.5310     1.2190 ha         1 3UP       0.106500
     43 H16         -6.0350    -3.1400     1.8600 ha         1 3UP       0.106000
     44 H17         -7.4630    -1.6630     0.5000 ha         1 3UP       0.106500
     45 H18         -6.5510    -0.5720    -1.5110 ha         1 3UP       0.112500
@<TRIPOS>BOND
     1     1     2 ar  
     2     1     6 ar  
     3     1     7 1   
     4     2     3 ar  
     5     2    28 1   
     6     3     4 ar  
     7     3     8 1   
     8     4     5 ar  
     9     5     6 ar  
    10     5    29 1   
    11     6    30 1   
    12     7     9 1   
    13     7    10 2   
    14     8    11 1   
    15     8    31 1   
    16     9    16 1   
    17     9    32 1   
    18    11    12 1   
    19    11    13 2   
    20    12    14 1   
    21    12    15 1   
    22    12    33 1   
    23    14    15 1   
    24    14    34 1   
    25    14    35 1   
    26    15    36 1   
    27    15    37 1   
    28    16    17 ar  
    29    16    21 ar  
    30    17    18 ar  
    31    17    38 1   
    32    18    19 ar  
    33    19    20 ar  
    34    19    39 1   
    35    20    21 ar  
    36    20    40 1   
    37    21    22 1   
    38    22    23 ar  
    39    22    27 ar  
    40    23    24 ar  
    41    23    41 1   
    42    24    25 ar  
    43    24    42 1   
    44    25    26 ar  
    45    25    43 1   
    46    26    27 ar  
    47    26    44 1   
    48    27    45 1   
@<TRIPOS>SUBSTRUCTURE
     1 3UP         1 TEMP              0 ****  ****    0 ROOT
