@<TRIPOS>MOLECULE
molecule
   45    48     1     0     0
SMALL
bcc


@<TRIPOS>ATOM
      1 C1           0.0000     0.0000     0.0000 ca         1 3UP      -0.086600
      2 C2           1.3960     0.0000     0.0000 ca         1 3UP      -0.238300
      3 C3           2.0680     0.0000     1.2170 ca         1 3UP       0.554200
      4 N4           1.4000     0.0010     2.3580 nb         1 3UP      -0.669000
      5 C5           0.0820     0.0010     2.3960 ca         1 3UP       0.453200
      6 C6          -0.6620     0.0070     1.2340 ca         1 3UP      -0.276300
      7 C7          -0.7600     0.0000    -1.2710 c          1 3UP       0.672700
      8 N8           3.4630    -0.0000     1.2330 ns         1 3UP      -0.549400
      9 N9          -2.1080     0.0010    -1.2500 ns         1 3UP      -0.463100
     10 O10         -0.1690    -0.0000    -2.3330 o          1 3UP      -0.588100
     11 C11          4.1220     0.1030     2.4040 c          1 3UP       0.682100
     12 C12          5.6250     0.2180     2.4150 cx         1 3UP      -0.240700
     13 O13          3.5060     0.1050     3.4490 o          1 3UP      -0.532100
     14 C14          6.3150     0.3330     3.7750 cx         1 3UP      -0.106900
     15 C15          6.2280     1.5530     2.8560 cx         1 3UP      -0.106900
     16 C16         -2.8250    -0.0940    -2.4460 ca         1 3UP      -0.061700
     17 C17         -2.3430     0.4970    -3.6060 ca         1 3UP       0.424200
     18 N18         -3.0170     0.4110    -4.7360 nb         1 3UP      -0.673000
     19 C19         -4.1660    -0.2320    -4.8190 ca         1 3UP       0.402200
     20 C20         -4.7190    -0.8490    -3.7150 ca         1 3UP      -0.228300
     21 C21         -4.0420    -0.7910    -2.4950 cp         1 3UP      -0.039000
     22 C22         -4.5970    -1.4430    -1.2840 cp         1 3UP      -0.053000
     23 C23         -3.7920    -2.2790    -0.5100 ca         1 3UP      -0.118000
     24 C24         -4.3130    -2.8820     0.6160 ca         1 3UP      -0.128000
     25 C25         -5.6300    -2.6620     0.9770 ca         1 3UP      -0.122000
     26 C26         -6.4330    -1.8340     0.2110 ca         1 3UP      -0.128000
     27 C27         -5.9210    -1.2200    -0.9130 ca         1 3UP      -0.118000
     28 H1           1.9470    -0.0030    -0.9330 ha         1 3UP       0.162000
     29 H2          -0.4240     0.0040     3.3530 h4         1 3UP       0.033100
     30 H3          -1.7440     0.0080     1.2750 ha         1 3UP       0.135000
     31 H4           3.9730    -0.1150     0.3800 hn         1 3UP       0.335500
     32 H5          -2.5920    -0.0370    -0.3750 hn         1 3UP       0.335500
     33 H6           6.1960    -0.3100     1.6600 hc         1 3UP       0.086700
     34 H7           7.2910    -0.1310     3.8450 hc         1 3UP       0.085700
     35 H8           5.6550     0.3480     4.6340 hc         1 3UP       0.085700
     36 H9           7.1520     1.8340     2.3640 hc         1 3UP       0.085700
     37 H10          5.5160     2.3130     3.1540 hc         1 3UP       0.085700
     38 H11         -1.4030     1.0350    -3.5820 h4         1 3UP       0.059100
     39 H12         -4.6850    -0.2750    -5.7690 h4         1 3UP       0.024100
     40 H13         -5.6620    -1.3760    -3.7950 ha         1 3UP       0.144000
     41 H14         -2.7610    -2.4530    -0.7910 ha         1 3UP       0.139500
     42 H15         -3.6900    -3.5310     1.2190 ha         1 3UP       0.135000
     43 H16         -6.0350    -3.1400     1.8600 ha         1 3UP       0.133000
     44 H17         -7.4630    -1.6630     0.5000 ha         1 3UP       0.135000
     45 H18         -6.5510    -0.5720    -1.5110 ha         1 3UP       0.139500
@<TRIPOS>BOND
     1     5     4 ar
     2     5     6 ar
     3     4     3 ar
     4     6     1 ar
     5     3     8 1
     6     3     2 ar
     7     8    11 1
     8     1     2 ar
     9     1     7 1
    10    10     7 2
    11    12    11 1
    12    12    14 1
    13    12    15 1
    14     7     9 1
    15    11    13 2
    16    14    15 1
    17     9    16 1
    18    17    16 ar
    19    17    18 ar
    20    16    21 ar
    21    23    24 ar
    22    23    22 ar
    23    24    25 ar
    24    18    19 ar
    25    21    22 1
    26    21    20 ar
    27    22    27 ar
    28    25    26 ar
    29    19    20 ar
    30    27    26 ar
    31     2    28 1
    32     5    29 1
    33     6    30 1
    34     8    31 1
    35     9    32 1
    36    12    33 1
    37    14    34 1
    38    14    35 1
    39    15    36 1
    40    15    37 1
    41    17    38 1
    42    19    39 1
    43    20    40 1
    44    23    41 1
    45    24    42 1
    46    25    43 1
    47    26    44 1
    48    27    45 1
@<TRIPOS>SUBSTRUCTURE
     1 3UP         1 TEMP              0 ****  ****    0 ROOT
