@<TRIPOS>MOLECULE
molecule
   51    55     1     0     0
SMALL
bcc


@<TRIPOS>ATOM
      1 C14          0.0000     0.0000     0.0000 ca         1 3UR      -0.186000
      2 C8           1.3830     0.0000     0.0000 ca         1 3UR      -0.076000
      3 C9           2.0810     0.0000     1.1950 ca         1 3UR      -0.186000
      4 C10          1.3990     0.0000     2.3980 ca         1 3UR       0.167400
      5 C11          0.0030     0.0000     2.4050 cp         1 3UR      -0.122000
      6 C12         -0.6940     0.0060     1.1960 ca         1 3UR       0.167400
      7 F1           2.0820    -0.0010     3.5620 f          1 3UR      -0.126400
      8 F2          -2.0460     0.0070     1.1930 f          1 3UR      -0.126400
      9 C15          0.3260    -5.7130     7.1640 ca         1 3UR       0.248900
     10 C16          0.1000    -5.1530     5.9080 ca         1 3UR       0.477900
     11 N2          -0.4740    -3.9620     5.8080 nb         1 3UR      -0.658000
     12 C17         -0.8320    -3.3050     6.9120 ca         1 3UR       0.428800
     13 C13         -0.6000    -3.8750     8.1660 ca         1 3UR       0.294900
     14 N3          -0.0330    -5.0640     8.2560 nb         1 3UR      -0.603000
     15 N4           0.4750    -5.8420     4.7610 nh         1 3UR      -0.730300
     16 C18          1.0890    -7.1320     5.1000 c3         1 3UR       0.134800
     17 C19          1.3550    -7.9240     3.8170 c3         1 3UR       0.108500
     18 C20          2.2870    -7.1160     2.9090 c3         1 3UR      -0.110400
     19 C21          1.6460    -5.7590     2.6120 c3         1 3UR      -0.097400
     20 C22          1.3710    -5.0290     3.9290 c3         1 3UR       0.157800
     21 C1          -0.7340     0.0060     3.6900 cp         1 3UR      -0.053000
     22 C2          -0.6400    -1.0840     4.5310 ca         1 3UR      -0.051000
     23 C3          -1.3390    -1.0790     5.7480 ca         1 3UR      -0.125000
     24 C4          -2.1540     0.0930     6.0970 ca         1 3UR      -0.039000
     25 C5          -2.2100     1.1770     5.1930 ca         1 3UR      -0.091000
     26 C6          -1.5130     1.1250     4.0350 ca         1 3UR      -0.082000
     27 C7          -1.4700    -1.9790     6.8100 cc         1 3UR      -0.170900
     28 N1          -2.2890    -1.4150     7.7230 na         1 3UR       0.034800
     29 N5          -2.7020    -0.1550     7.2750 nc         1 3UR      -0.225400
     30 N6           0.0860    -8.1720     3.1210 nz         1 3UR      -0.806600
     31 H1          -0.5400    -0.0050    -0.9390 ha         1 3UR       0.153500
     32 H2           1.9220     0.0000    -0.9400 ha         1 3UR       0.148000
     33 H3           3.1640     0.0010     1.1880 ha         1 3UR       0.153500
     34 H5          -0.8920    -3.3440     9.0650 h4         1 3UR       0.047100
     35 H6           0.4160    -7.6940     5.7360 h1         1 3UR       0.084700
     36 H7           2.0250    -6.9610     5.6180 h1         1 3UR       0.084700
     37 H8           1.8260    -8.8670     4.0680 hx         1 3UR       0.114700
     38 H9           2.4420    -7.6530     1.9810 hc         1 3UR       0.086700
     39 H10          3.2370    -6.9660     3.4090 hc         1 3UR       0.086700
     40 H11          2.3210    -5.1660     2.0070 hc         1 3UR       0.067700
     41 H12          0.7140    -5.9090     2.0810 hc         1 3UR       0.067700
     42 H13          2.3050    -4.8700     4.4540 h1         1 3UR       0.083200
     43 H14          0.9010    -4.0750     3.7200 h1         1 3UR       0.083200
     44 H15         -0.1480    -1.9880     4.1930 ha         1 3UR       0.134000
     45 H16         -2.8020     2.0530     5.4320 ha         1 3UR       0.154000
     46 H17         -1.5560     1.9680     3.3550 ha         1 3UR       0.147000
     47 H18         -2.5600    -1.8340     8.5900 hn         1 3UR       0.336700
     48 H19         -0.4050    -8.9150     3.5770 hn         1 3UR       0.460467
     49 H20          0.2710    -8.4280     2.1720 hn         1 3UR       0.460467
     50 H63         -0.4720    -7.3410     3.1410 hn         1 3UR       0.460467
     51 H4           0.7930    -6.6870     7.2440 h4         1 3UR       0.027100
@<TRIPOS>BOND
     1    28    29 1
     2    28    27 1
     3    29    24 2
     4    13    14 ar
     5    13    12 ar
     6    14     9 ar
     7    24    25 ar
     8    24    23 ar
     9    27    12 1
    10    27    23 2
    11    12    11 ar
    12    25    26 ar
    13    23    22 ar
    14     9    10 ar
    15    11    10 ar
    16    26    21 ar
    17    22    21 ar
    18    10    15 1
    19    21     5 1
    20    15    16 1
    21    15    20 1
    22    16    17 1
    23     5     6 ar
    24     5     4 ar
    25    20    19 1
    26    17    30 1
    27    17    18 1
    28     8     6 1
    29     7     4 1
    30    19    18 1
    31     6     1 ar
    32     4     3 ar
    33     1     2 ar
    34     3     2 ar
    35     1    31 1
    36     2    32 1
    37     3    33 1
    38     9    51 1
    39    13    34 1
    40    16    35 1
    41    16    36 1
    42    17    37 1
    43    18    38 1
    44    18    39 1
    45    19    40 1
    46    19    41 1
    47    20    42 1
    48    20    43 1
    49    22    44 1
    50    25    45 1
    51    26    46 1
    52    28    47 1
    53    30    48 1
    54    30    49 1
    55    50    30 1
@<TRIPOS>SUBSTRUCTURE
     1 3UR         1 TEMP              0 ****  ****    0 ROOT
