@<TRIPOS>MOLECULE
3US
   98   101     1     0     0
SMALL
bcc


@<TRIPOS>ATOM
      1 C4           0.0000     0.0000     0.0000 ca         1 3US       0.275800
      2 C3           1.4050     0.0000     0.0000 ca         1 3US      -0.244200
      3 C1           0.7600    -0.0070     2.0700 cc         1 3US       0.242700
      4 OBA         -4.2530     2.2490    12.0750 o          1 3US      -0.696100
      5 CAY         -3.9730     3.2550    11.4530 c          1 3US       0.567100
      6 NAZ         -4.0780     4.4630    12.0420 ns         1 3US      -0.054100
      7 CBB         -4.5880     4.5650    13.3410 ca         1 3US      -0.081400
      8 CBG         -5.3720     5.6560    13.6970 ca         1 3US      -0.116000
      9 CBF         -5.8740     5.7530    14.9790 ca         1 3US      -0.091000
     10 CBC         -4.3160     3.5750    14.2760 ca         1 3US      -0.116000
     11 CBD         -4.8210     3.6790    15.5570 ca         1 3US      -0.091000
     12 CBE         -5.5970     4.7690    15.9090 ca         1 3US      -0.091300
     13 CBH         -6.1450     4.8800    17.3080 c3         1 3US      -0.011700
     14 CBK         -7.6740     4.9200    17.2550 c3         1 3US       0.004900
     15 CBJ         -5.6960     3.6700    18.1300 c3         1 3US       0.004900
     16 CBI         -5.6250     6.1620    17.9600 c3         1 3US       0.004900
     17 NAX         -3.5570     3.1620    10.1740 ns         1 3US      -0.220900
     18 CAW         -3.4430     1.8500     9.5340 c3         1 3US       0.066000
     19 CAV         -2.9540     2.0240     8.0940 c3         1 3US      -0.062400
     20 CAT         -2.8350     0.6530     7.4260 c3         1 3US       0.132800
     21 NAS         -2.5120     0.8290     6.0040 n3         1 3US      -0.527600
     22 CAU         -1.1140     1.2440     5.8290 c3         1 3US       0.106500
     23 CBL         -1.0300     2.7720     5.8460 c3         1 3US      -0.022100
     24 CBM         -0.2660     0.6740     6.9670 c3         1 3US      -0.022100
     25 CAN         -3.0100    -0.0450     3.7710 c3         1 3US       0.164100
     26 CAM         -3.4070    -1.3090     2.9840 c3         1 3US       0.122100
     27 OAQ         -4.6950    -1.1400     2.3860 oh         1 3US      -0.549800
     28 CAL         -2.3140    -1.4380     1.8960 c3         1 3US       0.126100
     29 OAP         -2.8840    -1.8230     0.6440 oh         1 3US      -0.535800
     30 CAK         -1.7510     0.0050     1.8280 c3         1 3US       0.155800
     31 OAO         -1.7840     0.4440     3.2020 os         1 3US      -0.398600
     32 NAG         -0.3770    -0.0010     1.3190 na         1 3US       0.210000
     33 N2           1.8050     0.0000     1.2940 nd         1 3US      -0.497100
     34 N5          -0.6460     0.0050    -1.1610 nb         1 3US      -0.666000
     35 C6           0.0170     0.0040    -2.2980 ca         1 3US       0.687900
     36 C7           2.0680     0.0010    -1.2400 ca         1 3US       0.603200
     37 N8           1.3370    -0.0020    -2.3490 nb         1 3US      -0.747000
     38 N9           3.4500    -0.0040    -1.3030 nu         1 3US      -0.474900
     39 C10          4.1250    -0.0120    -2.6030 c3         1 3US       0.157800
     40 C11          5.6400    -0.0160    -2.3930 c3         1 3US      -0.035400
     41 C12          6.3430    -0.0230    -3.7520 c3         1 3US      -0.036400
     42 C13          7.8590    -0.0280    -3.5410 c3         1 3US       0.050000
     43 N15          8.5320    -0.0350    -4.8420 ns         1 3US      -0.204900
     44 C16          9.8780    -0.0400    -4.9040 c          1 3US       0.569100
     45 O17         10.5320    -0.0390    -3.8820 o          1 3US      -0.648100
     46 C18         10.5710    -0.0470    -6.2420 c3         1 3US      -0.065100
     47 H1           0.7900    -0.0160     3.1530 h5         1 3US       0.037800
     48 H2          -3.7630     5.2830    11.5620 hn         1 3US       0.159500
     49 H3          -5.5900     6.4280    12.9680 ha         1 3US       0.124000
     50 H4          -6.4840     6.6040    15.2570 ha         1 3US       0.114000
     51 H5          -3.7080     2.7220    14.0010 ha         1 3US       0.124000
     52 H6          -4.6070     2.9080    16.2880 ha         1 3US       0.114000
     53 H7          -7.9960     5.8540    16.8120 hc         1 3US       0.006700
     54 H8          -8.0360     4.0930    16.6550 hc         1 3US       0.006700
     55 H9          -8.0730     4.8390    18.2590 hc         1 3US       0.006700
     56 H10         -6.0900     3.7500    19.1360 hc         1 3US       0.006700
     57 H11         -4.6130     3.6410    18.1680 hc         1 3US       0.006700
     58 H12         -6.0650     2.7620    17.6690 hc         1 3US       0.006700
     59 H13         -5.8710     6.1560    19.0150 hc         1 3US       0.006700
     60 H14         -4.5500     6.2180    17.8400 hc         1 3US       0.006700
     61 H15         -6.0860     7.0200    17.4870 hc         1 3US       0.006700
     62 H16         -3.3410     3.9910     9.6570 hn         1 3US       0.168500
     63 H17         -4.4110     1.3650     9.5300 h1         1 3US       0.024700
     64 H18         -2.7360     1.2400    10.0840 h1         1 3US       0.024700
     65 H19         -3.6610     2.6330     7.5440 hc         1 3US       0.032200
     66 H20         -1.9860     2.5100     8.0980 hc         1 3US       0.032200
     67 H21         -3.7750     0.1230     7.5200 h1         1 3US       0.023200
     68 H22         -2.0490     0.0840     7.9080 h1         1 3US       0.023200
     69 H24         -0.7430     0.8730     4.8810 h1         1 3US       0.055700
     70 H25         -2.0190     3.1900     5.6970 hc         1 3US       0.012533
     71 H26         -0.6390     3.1020     6.8010 hc         1 3US       0.012533
     72 H27         -0.3730     3.1070     5.0530 hc         1 3US       0.012533
     73 H28          0.7840     0.8190     6.7420 hc         1 3US       0.012533
     74 H29         -0.5110     1.1840     7.8910 hc         1 3US       0.012533
     75 H30         -0.4690    -0.3850     7.0740 hc         1 3US       0.012533
     76 H31         -1.9600    -1.0790     5.3360 h1         1 3US       0.018700
     77 H32         -3.6900    -0.8650     5.6380 h1         1 3US       0.018700
     78 H33         -3.7850     0.7060     3.6750 h1         1 3US       0.057700
     79 H34         -3.3960    -2.1760     3.6330 h1         1 3US       0.012700
     80 H35         -5.2680    -1.8310     2.6740 ho         1 3US       0.390000
     81 H36         -1.5450    -2.1350     2.2070 h1         1 3US       0.020700
     82 H37         -2.8950    -2.7630     0.5790 ho         1 3US       0.389000
     83 H38         -2.3880     0.6310     1.2150 h2         1 3US       0.073700
     84 H39         -0.5410     0.0020    -3.2270 h5         1 3US      -0.004900
     85 H40          3.9900    -0.0030    -0.4600 hn         1 3US       0.309800
     86 H41          3.8340    -0.8980    -3.1550 h1         1 3US       0.027200
     87 H42          3.8400     0.8710    -3.1630 h1         1 3US       0.027200
     88 H43          5.9310     0.8690    -1.8410 hc         1 3US       0.022200
     89 H44          5.9250    -0.9000    -1.8350 hc         1 3US       0.022200
     90 H45          6.0520    -0.9080    -4.3040 hc         1 3US       0.019700
     91 H46          6.0590     0.8610    -4.3100 hc         1 3US       0.019700
     92 H47          8.1500     0.8570    -2.9890 h1         1 3US       0.027700
     93 H48          8.1430    -0.9120    -2.9830 h1         1 3US       0.027700
     94 H49          7.9930    -0.0680    -5.6850 hn         1 3US       0.174500
     95 H50          9.9990     0.5420    -6.9480 hc         1 3US       0.021700
     96 H51         10.6500    -1.0660    -6.6030 hc         1 3US       0.021700
     97 H52         11.5630     0.3770    -6.1370 hc         1 3US       0.021700
     98 CAR         -2.7960    -0.3960     5.2450 c3         1 3US       0.141800
@<TRIPOS>BOND
     1     1     2 ar  
     2     1    32 1   
     3     1    34 ar  
     4     2    33 1   
     5     2    36 ar  
     6     3    32 1   
     7     3    33 2   
     8     3    47 1   
     9     4     5 2   
    10     5     6 1   
    11     5    17 1   
    12     6     7 1   
    13     6    48 1   
    14     7     8 ar  
    15     7    10 ar  
    16     8     9 ar  
    17     8    49 1   
    18     9    12 ar  
    19     9    50 1   
    20    10    11 ar  
    21    10    51 1   
    22    11    12 ar  
    23    11    52 1   
    24    12    13 1   
    25    13    14 1   
    26    13    15 1   
    27    13    16 1   
    28    14    53 1   
    29    14    54 1   
    30    14    55 1   
    31    15    56 1   
    32    15    57 1   
    33    15    58 1   
    34    16    59 1   
    35    16    60 1   
    36    16    61 1   
    37    17    18 1   
    38    17    62 1   
    39    18    19 1   
    40    18    63 1   
    41    18    64 1   
    42    19    20 1   
    43    19    65 1   
    44    19    66 1   
    45    20    21 1   
    46    20    67 1   
    47    20    68 1   
    48    21    22 1   
    49    21    98 1   
    50    22    23 1   
    51    22    24 1   
    52    22    69 1   
    53    23    70 1   
    54    23    71 1   
    55    23    72 1   
    56    24    73 1   
    57    24    74 1   
    58    24    75 1   
    59    25    26 1   
    60    25    31 1   
    61    25    78 1   
    62    25    98 1   
    63    26    27 1   
    64    26    28 1   
    65    26    79 1   
    66    27    80 1   
    67    28    29 1   
    68    28    30 1   
    69    28    81 1   
    70    29    82 1   
    71    30    31 1   
    72    30    32 1   
    73    30    83 1   
    74    34    35 ar  
    75    35    37 ar  
    76    35    84 1   
    77    36    37 ar  
    78    36    38 1   
    79    38    39 1   
    80    38    85 1   
    81    39    40 1   
    82    39    86 1   
    83    39    87 1   
    84    40    41 1   
    85    40    88 1   
    86    40    89 1   
    87    41    42 1   
    88    41    90 1   
    89    41    91 1   
    90    42    43 1   
    91    42    92 1   
    92    42    93 1   
    93    43    44 1   
    94    43    94 1   
    95    44    45 2   
    96    44    46 1   
    97    46    95 1   
    98    46    96 1   
    99    46    97 1   
   100    76    98 1   
   101    77    98 1   
@<TRIPOS>SUBSTRUCTURE
     1 3US         1 TEMP              0 ****  ****    0 ROOT
