@<TRIPOS>MOLECULE
3UT
   52    57     1     0     0
SMALL
bcc


@<TRIPOS>ATOM
      1 C28         0.1720    0.8450   -0.4870 c3        1 3UT      0.169600
      2 O29         1.5810    1.0400   -0.4680 os        1 3UT     -0.406600
      3 C30         2.2280    0.3230    0.5770 c3        1 3UT      0.122400
      4 C31         1.7520    0.7810    1.9490 c3        1 3UT     -0.088200
      5 C32         0.2900    1.0230    1.9810 c2        1 3UT     -0.121200
      6 C20        -0.4470    1.0690    0.8580 ce        1 3UT     -0.235000
      7 C13        -1.8980    1.3140    0.8860 ca        1 3UT      0.497100
      8 C14        -2.3970    2.3510    1.6990 ca        1 3UT     -0.235300
      9 N12        -2.7000    0.5340    0.1110 nb        1 3UT     -0.640000
     10 C11        -4.0300    0.7670    0.1480 ca        1 3UT      0.641500
     11 F33        -4.8380   -0.0060   -0.6090 f         1 3UT     -0.181200
     12 C8         -4.6110    1.8060    0.9550 ca        1 3UT     -0.005200
     13 O7         -5.9840    1.9150    0.8870 os        1 3UT     -0.185200
     14 C9         -3.7750    2.6080    1.7300 ca        1 3UT     -0.101300
     15 C10        -4.3390    3.7330    2.5530 c3        1 3UT      0.236800
     16 C15        -3.7950    3.6570    4.0370 c3        1 3UT      0.106400
     17 O16        -3.0340    4.8890    4.2290 os        1 3UT     -0.438400
     18 C17        -3.1420    5.5870    3.0150 c2        1 3UT      0.591500
     19 N18        -3.8220    5.0480    2.0410 n2        1 3UT     -0.492900
     20 N19        -2.4420    6.8700    3.0400 n4        1 3UT     -0.767600
     21 C5         -5.8400    3.7280    2.5460 ca        1 3UT     -0.166300
     22 C6         -6.5500    4.6310    3.3490 ca        1 3UT     -0.083000
     23 C4         -6.5640    2.8380    1.7440 ca        1 3UT      0.152100
     24 C3         -7.9720    2.8200    1.7590 ca        1 3UT     -0.127000
     25 C2         -8.6480    3.7110    2.5760 ca        1 3UT     -0.063000
     26 C1         -7.9450    4.6320    3.3800 cp        1 3UT     -0.034000
     27 C21        -8.6770    5.5730    4.2180 cp        1 3UT     -0.191300
     28 C26        -9.8670    6.1620    3.7560 ca        1 3UT     -0.060000
     29 C25       -10.5630    7.0520    4.5660 ca        1 3UT     -0.249300
     30 C24       -10.0470    7.3460    5.8440 ca        1 3UT      0.437200
     31 N23        -8.9150    6.8140    6.3290 nb        1 3UT     -0.677000
     32 C22        -8.2450    5.9380    5.5260 ca        1 3UT      0.613500
     33 F27        -7.1080    5.4090    6.0470 f         1 3UT     -0.232200
     34 H1         -0.1960    1.5930   -1.2400 h1        1 3UT      0.074200
     35 H2         -0.0620   -0.1970   -0.8410 h1        1 3UT      0.074200
     36 H3          3.3170    0.5500    0.4280 h1        1 3UT      0.062700
     37 H4          2.0480   -0.7770    0.4480 h1        1 3UT      0.062700
     38 H5          2.0260    0.0050    2.7120 hc        1 3UT      0.067700
     39 H6          2.2780    1.7330    2.2340 hc        1 3UT      0.067700
     40 H7         -0.1570    1.1580    2.9780 ha        1 3UT      0.122000
     41 H8         -1.6990    2.9520    2.2970 ha        1 3UT      0.142000
     42 H9         -3.0790    2.8140    4.1940 h1        1 3UT      0.114700
     43 H10        -4.6130    3.6660    4.7990 h1        1 3UT      0.114700
     44 H11        -2.8060    7.4250    3.8290 hn        1 3UT      0.491800
     45 H12        -2.5900    7.3740    2.1540 hn        1 3UT      0.491800
     46 H13        -5.9950    5.3470    3.9770 ha        1 3UT      0.133000
     47 H14        -8.5090    2.0970    1.1250 ha        1 3UT      0.178000
     48 H15        -9.7510    3.6920    2.6050 ha        1 3UT      0.161000
     49 H16       -10.2410    5.9180    2.7490 ha        1 3UT      0.153000
     50 H17       -11.4980    7.5200    4.2250 ha        1 3UT      0.165000
     51 H18       -10.5680    8.0470    6.5240 h4        1 3UT      0.046100
     52 H193       -1.4380    6.6930    3.1830 hn        1 3UT      0.491800
@<TRIPOS>BOND
     1    1    2 1
     2    1    6 1
     3    1   34 1
     4    1   35 1
     5    2    3 1
     6    3    4 1
     7    3   36 1
     8    3   37 1
     9    4    5 1
    10    4   38 1
    11    4   39 1
    12    5    6 2
    13    5   40 1
    14    6    7 1
    15    7    8 ar
    16    7    9 ar
    17    8   14 ar
    18    8   41 1
    19    9   10 ar
    20   10   11 1
    21   10   12 ar
    22   12   13 1
    23   12   14 ar
    24   13   23 1
    25   14   15 1
    26   15   16 1
    27   15   19 1
    28   15   21 1
    29   16   17 1
    30   16   42 1
    31   16   43 1
    32   17   18 1
    33   18   19 2
    34   18   20 1
    35   20   44 1
    36   20   45 1
    37   20   52 1
    38   21   22 ar
    39   21   23 ar
    40   22   26 ar
    41   22   46 1
    42   23   24 ar
    43   24   25 ar
    44   24   47 1
    45   25   26 ar
    46   25   48 1
    47   26   27 1
    48   27   28 ar
    49   27   32 ar
    50   28   29 ar
    51   28   49 1
    52   29   30 ar
    53   29   50 1
    54   30   31 ar
    55   30   51 1
    56   31   32 ar
    57   32   33 1
@<TRIPOS>SUBSTRUCTURE
     1 3UT         1 TEMP              0 ****  ****    0 ROOT
