@<TRIPOS>MOLECULE
molecule
   48    52     1     0     0
SMALL
bcc


@<TRIPOS>ATOM
      1 C1           1.5030     0.0000     0.0000 ca         1 3UW      -0.179300
      2 C2           2.2210    -0.3440     1.1360 ca         1 3UW       0.179100
      3 C3           3.6120    -0.3470     1.1040 ca         1 3UW      -0.139000
      4 C4           4.2830    -0.0070    -0.0500 ca         1 3UW      -0.066000
      5 C5           3.5650     0.3430    -1.1920 cp         1 3UW      -0.057000
      6 C6           2.1730     0.3440    -1.1590 ca         1 3UW      -0.081000
      7 C7           0.0000     0.0000     0.0000 c3         1 3UW       0.106500
      8 C8          -0.5390     0.0000     1.4280 c3         1 3UW       0.136100
      9 C9           0.2240    -1.0660     2.2280 c3         1 3UW       0.117100
     10 O10          1.5980    -0.6790     2.2950 os         1 3UW      -0.306900
     11 O11         -1.9340    -0.3070     1.4150 os         1 3UW      -0.442600
     12 C12         -2.5390    -0.3410     2.7090 c3         1 3UW       0.137400
     13 C13         -1.8730    -1.4310     3.5530 c3         1 3UW      -0.120400
     14 C14         -0.3540    -1.1370     3.6450 c3         1 3UW      -0.071400
     15 C15          4.2820     0.7120    -2.4380 cp         1 3UW      -0.199300
     16 C16          3.9390     0.1190    -3.6550 ca         1 3UW       0.638500
     17 N17          4.5760     0.4490    -4.7630 nb         1 3UW      -0.718000
     18 C18          5.5490     1.3400    -4.7670 ca         1 3UW       0.463200
     19 C19          5.9450     1.9700    -3.6020 ca         1 3UW      -0.260300
     20 C20          5.3040     1.6640    -2.4140 ca         1 3UW      -0.052000
     21 F21          2.9510    -0.7990    -3.6990 f          1 3UW      -0.229200
     22 N22         -0.5130     1.1570    -0.7410 n2         1 3UW      -0.513900
     23 C23         -1.2050     0.6990    -1.7410 c2         1 3UW       0.454800
     24 N24         -1.2350    -0.6740    -1.7830 n          1 3UW      -0.425300
     25 C25         -0.5260    -1.1970    -0.7590 c          1 3UW       0.716500
     26 O26         -0.3490    -2.3680    -0.5060 o          1 3UW      -0.503500
     27 C27         -1.9390    -1.4610    -2.7980 c3         1 3UW       0.074300
     28 N28         -1.8400     1.5020    -2.6580 nz         1 3UW      -0.723600
     29 H1           4.1040    -0.0760     2.0310 ha         1 3UW       0.170000
     30 H2           5.2160    -0.5290    -0.2230 ha         1 3UW       0.167000
     31 H3           1.6810     0.0730    -2.0850 ha         1 3UW       0.133000
     32 H4          -0.3840     0.9740     1.8770 h1         1 3UW       0.086700
     33 H5           0.1330    -2.0300     1.7420 h1         1 3UW       0.090700
     34 H6          -2.4090     0.6200     3.1920 h1         1 3UW       0.061700
     35 H7          -3.5950    -0.5600     2.6070 h1         1 3UW       0.061700
     36 H8          -2.3020    -1.4310     4.5470 hc         1 3UW       0.070700
     37 H9          -2.0260    -2.3950     3.0850 hc         1 3UW       0.070700
     38 H10          0.1200    -1.9610     4.1640 hc         1 3UW       0.073700
     39 H11         -0.2240    -0.1690     4.1130 hc         1 3UW       0.073700
     40 H12          6.0470     1.5800    -5.6980 h4         1 3UW       0.042100
     41 H13          6.7440     2.7010    -3.6200 ha         1 3UW       0.157000
     42 H14          5.5950     2.1420    -1.4860 ha         1 3UW       0.157000
     43 H15         -1.6430    -1.1260    -3.7850 h1         1 3UW       0.069700
     44 H16         -3.0080    -1.3320    -2.6790 h1         1 3UW       0.069700
     45 H17         -1.6860    -2.5080    -2.6820 h1         1 3UW       0.069700
     46 H18         -1.5230     1.2720    -3.5790 hn         1 3UW       0.480133
     47 H19         -2.8290     1.3580    -2.6000 hn         1 3UW       0.480133
     48 H283        -1.6310     2.4610    -2.4630 hn         1 3UW       0.480133
@<TRIPOS>BOND
     1    26    25 2   
     2    13    14 1   
     3    13    12 1   
     4    27    24 1   
     5    14     9 1   
     6     9    10 1   
     7     9     8 1   
     8    25    24 1   
     9    25     7 1   
    10    12    11 1   
    11    11     8 1   
    12    10     2 1   
    13    24    23 1   
    14     8     7 1   
    15     2     3 ar  
    16     2     1 ar  
    17     3     4 ar  
    18     7     1 1   
    19     7    22 1   
    20     1     6 ar  
    21    20    19 ar  
    22    20    15 ar  
    23     4     5 ar  
    24     6     5 ar  
    25    23    22 2   
    26    23    28 1   
    27     5    15 1   
    28    19    18 ar  
    29    15    16 ar  
    30    18    17 ar  
    31    16    17 ar  
    32    16    21 1   
    33     3    29 1   
    34     4    30 1   
    35     6    31 1   
    36     8    32 1   
    37     9    33 1   
    38    12    34 1   
    39    12    35 1   
    40    13    36 1   
    41    13    37 1   
    42    14    38 1   
    43    14    39 1   
    44    18    40 1   
    45    19    41 1   
    46    20    42 1   
    47    27    43 1   
    48    27    44 1   
    49    27    45 1   
    50    28    46 1   
    51    28    47 1   
    52    48    28 1   
@<TRIPOS>SUBSTRUCTURE
     1 3UW         1 TEMP              0 ****  ****    0 ROOT
