@<TRIPOS>MOLECULE
3UW
   48    52     1     0     0
SMALL
bcc


@<TRIPOS>ATOM
      1 C1           1.5030     0.0000     0.0000 ca         1 3UW      -0.191300
      2 C2           2.2210    -0.3440     1.1360 ca         1 3UW       0.188100
      3 C3           3.6120    -0.3470     1.1040 ca         1 3UW      -0.114000
      4 C4           4.2830    -0.0070    -0.0500 ca         1 3UW      -0.039000
      5 C5           3.5650     0.3430    -1.1920 cp         1 3UW      -0.045000
      6 C6           2.1730     0.3440    -1.1590 ca         1 3UW      -0.073000
      7 C7           0.0000     0.0000     0.0000 c3         1 3UW       0.091500
      8 C8          -0.5390     0.0000     1.4280 c3         1 3UW       0.164100
      9 C9           0.2240    -1.0660     2.2280 c3         1 3UW       0.138100
     10 O10          1.5980    -0.6790     2.2950 os         1 3UW      -0.281900
     11 O11         -1.9340    -0.3070     1.4150 os         1 3UW      -0.435600
     12 C12         -2.5390    -0.3410     2.7090 c3         1 3UW       0.223400
     13 C13         -1.8730    -1.4310     3.5530 c3         1 3UW      -0.064400
     14 C14         -0.3540    -1.1370     3.6450 c3         1 3UW      -0.019400
     15 C15          4.2820     0.7120    -2.4380 cp         1 3UW      -0.180300
     16 C16          3.9390     0.1190    -3.6550 ca         1 3UW       0.552500
     17 N17          4.5760     0.4490    -4.7630 nb         1 3UW      -0.583000
     18 C18          5.5490     1.3400    -4.7670 ca         1 3UW       0.439200
     19 C19          5.9450     1.9700    -3.6020 ca         1 3UW      -0.219300
     20 C20          5.3040     1.6640    -2.4140 ca         1 3UW      -0.028000
     21 F21          2.9510    -0.7990    -3.6990 f          1 3UW      -0.231200
     22 N22         -0.5130     1.1570    -0.7410 n2         1 3UW      -0.412900
     23 C23         -1.2050     0.6990    -1.7410 c2         1 3UW       0.070800
     24 N24         -1.2350    -0.6740    -1.7830 n          1 3UW      -0.042300
     25 C25         -0.5260    -1.1970    -0.7590 c          1 3UW       0.631500
     26 O26         -0.3490    -2.3680    -0.5060 o          1 3UW      -0.527500
     27 C27         -1.9390    -1.4610    -2.7980 c3         1 3UW       0.066300
     28 N28         -1.8400     1.5020    -2.6580 nz         1 3UW       0.224400
     29 H1           4.1040    -0.0760     2.0310 ha         1 3UW       0.137000
     30 H2           5.2160    -0.5290    -0.2230 ha         1 3UW       0.133000
     31 H3           1.6810     0.0730    -2.0850 ha         1 3UW       0.106000
     32 H4          -0.3840     0.9740     1.8770 h1         1 3UW       0.052700
     33 H5           0.1330    -2.0300     1.7420 h1         1 3UW       0.060700
     34 H6          -2.4090     0.6200     3.1920 h1         1 3UW       0.018700
     35 H7          -3.5950    -0.5600     2.6070 h1         1 3UW       0.018700
     36 H8          -2.3020    -1.4310     4.5470 hc         1 3UW       0.037700
     37 H9          -2.0260    -2.3950     3.0850 hc         1 3UW       0.037700
     38 H10          0.1200    -1.9610     4.1640 hc         1 3UW       0.039200
     39 H11         -0.2240    -0.1690     4.1130 hc         1 3UW       0.039200
     40 H12          6.0470     1.5800    -5.6980 h4         1 3UW      -0.006900
     41 H13          6.7440     2.7010    -3.6200 ha         1 3UW       0.128000
     42 H14          5.5950     2.1420    -1.4860 ha         1 3UW       0.124000
     43 H15         -1.6430    -1.1260    -3.7850 h1         1 3UW       0.035367
     44 H16         -3.0080    -1.3320    -2.6790 h1         1 3UW       0.035367
     45 H17         -1.6860    -2.5080    -2.6820 h1         1 3UW       0.035367
     46 H18         -1.5230     1.2720    -3.5790 hn         1 3UW       0.221800
     47 H19         -2.8290     1.3580    -2.6000 hn         1 3UW       0.221800
     48 H283        -1.6310     2.4610    -2.4630 hn         1 3UW       0.221800
@<TRIPOS>BOND
     1     1     2 ar  
     2     1     6 ar  
     3     1     7 1   
     4     2     3 ar  
     5     2    10 1   
     6     3     4 ar  
     7     3    29 1   
     8     4     5 ar  
     9     4    30 1   
    10     5     6 ar  
    11     5    15 1   
    12     6    31 1   
    13     7     8 1   
    14     7    22 1   
    15     7    25 1   
    16     8     9 1   
    17     8    11 1   
    18     8    32 1   
    19     9    10 1   
    20     9    14 1   
    21     9    33 1   
    22    11    12 1   
    23    12    13 1   
    24    12    34 1   
    25    12    35 1   
    26    13    14 1   
    27    13    36 1   
    28    13    37 1   
    29    14    38 1   
    30    14    39 1   
    31    15    16 ar  
    32    15    20 ar  
    33    16    17 ar  
    34    16    21 1   
    35    17    18 ar  
    36    18    19 ar  
    37    18    40 1   
    38    19    20 ar  
    39    19    41 1   
    40    20    42 1   
    41    22    23 2   
    42    23    24 1   
    43    23    28 1   
    44    24    25 1   
    45    24    27 1   
    46    25    26 2   
    47    27    43 1   
    48    27    44 1   
    49    27    45 1   
    50    28    46 1   
    51    28    47 1   
    52    28    48 1   
@<TRIPOS>SUBSTRUCTURE
     1 3UW         1 TEMP              0 ****  ****    0 ROOT
