@<TRIPOS>MOLECULE
molecule
   51    55     1     0     0
SMALL
bcc


@<TRIPOS>ATOM
      1 C1           0.0000     0.0000     0.0000 cp         1 3UX      -0.058000
      2 C2           1.3930     0.0000     0.0000 ca         1 3UX      -0.052000
      3 C3           2.0790     0.0000     1.1950 ca         1 3UX      -0.146000
      4 C4           1.3860    -0.0000     2.4040 ca         1 3UX       0.188100
      5 C5          -0.0000     0.0050     2.4060 ca         1 3UX      -0.176300
      6 C6          -0.6910     0.0080     1.2090 ca         1 3UX      -0.068000
      7 C7          -0.7450    -0.0020    -1.2840 cp         1 3UX      -0.204300
      8 O8           2.1000    -0.0180     3.5590 os         1 3UX      -0.306900
      9 C9           1.4350     0.3700     4.7640 c3         1 3UX       0.131800
     10 C10          0.1160    -0.4110     4.8600 c3         1 3UX       0.147100
     11 C11         -0.7740     0.0200     3.6940 c3         1 3UX       0.108500
     12 C12          2.3250     0.0380     5.9650 c3         1 3UX      -0.067400
     13 C13          1.5600     0.3480     7.2560 c3         1 3UX      -0.116400
     14 C14          0.2530    -0.4480     7.2680 c3         1 3UX       0.137400
     15 O15         -0.5280    -0.0990     6.0960 os         1 3UX      -0.447600
     16 N16         -1.3420     1.3490     3.9460 n2         1 3UX      -0.510900
     17 C17         -2.6330     1.2200     3.9780 c2         1 3UX       0.449800
     18 N18         -3.0420    -0.0750     3.7740 n          1 3UX      -0.430300
     19 C19         -1.9780    -0.8870     3.5890 c          1 3UX       0.708500
     20 O20         -1.9870    -2.0820     3.3850 o          1 3UX      -0.492500
     21 N21         -3.4980     2.2660     4.1940 nz         1 3UX      -0.722600
     22 C22          1.1460     1.8710     4.7330 c3         1 3UX      -0.110100
     23 C23         -4.4390    -0.5150     3.7580 c3         1 3UX       0.074300
     24 C24         -0.4290     0.9150    -2.2890 ca         1 3UX      -0.059000
     25 C25         -1.1520     0.8720    -3.4680 ca         1 3UX      -0.265300
     26 C26         -2.1570    -0.0670    -3.6140 ca         1 3UX       0.464200
     27 N27         -2.4360    -0.9210    -2.6470 nb         1 3UX      -0.716000
     28 C28         -1.7690    -0.9240    -1.5080 ca         1 3UX       0.647500
     29 F29         -2.0850    -1.8220    -0.5490 f          1 3UX      -0.216200
     30 H1           1.9360    -0.0060    -0.9370 ha         1 3UX       0.156000
     31 H2           3.1620    -0.0000     1.1950 ha         1 3UX       0.166000
     32 H3          -1.7740     0.0080     1.2110 ha         1 3UX       0.126000
     33 H4           0.3110    -1.4750     4.8030 h1         1 3UX       0.096700
     34 H5           3.2250     0.6400     5.9250 hc         1 3UX       0.071700
     35 H6           2.5840    -1.0140     5.9420 hc         1 3UX       0.071700
     36 H7           2.1640     0.0640     8.1090 hc         1 3UX       0.066700
     37 H8           1.3390     1.4070     7.2980 hc         1 3UX       0.066700
     38 H9           0.4750    -1.5080     7.2510 h1         1 3UX       0.065200
     39 H10         -0.3090    -0.2040     8.1620 h1         1 3UX       0.065200
     40 H11         -4.0130     2.1050     5.0370 hn         1 3UX       0.478800
     41 H12         -2.9780     3.1170     4.2780 hn         1 3UX       0.478800
     42 H13          2.0280     2.4160     5.0480 hc         1 3UX       0.054700
     43 H14          0.8800     2.1670     3.7260 hc         1 3UX       0.054700
     44 H15          0.3260     2.0950     5.4040 hc         1 3UX       0.054700
     45 H16         -4.9810     0.0300     2.9950 h1         1 3UX       0.069033
     46 H17         -4.4810    -1.5760     3.5420 h1         1 3UX       0.069033
     47 H18         -4.8880    -0.3260     4.7250 h1         1 3UX       0.069033
     48 H19          0.3630     1.6400    -2.1490 ha         1 3UX       0.150000
     49 H20         -0.9340     1.5670    -4.2700 ha         1 3UX       0.155000
     50 H21         -2.7260    -0.1000    -4.5350 h4         1 3UX       0.042100
     51 H213        -4.1370     2.3350     3.4270 hn         1 3UX       0.478800
@<TRIPOS>BOND
     1    20    19 2
     2    14    13 1
     3    14    15 1
     4    13    12 1
     5    12     9 1
     6    15    10 1
     7    19    18 1
     8    19    11 1
     9    10     9 1
    10    10    11 1
    11    23    18 1
    12     8     9 1
    13     8     4 1
    14    18    17 1
    15     9    22 1
    16    11     5 1
    17    11    16 1
    18     4     5 ar
    19     4     3 ar
    20     5     6 ar
    21     3     2 ar
    22    24    25 ar
    23    24     7 ar
    24     6     1 ar
    25     2     1 ar
    26    17    16 2
    27    17    21 1
    28     1     7 1
    29    25    26 ar
    30     7    28 ar
    31    26    27 ar
    32    28    27 ar
    33    28    29 1
    34     2    30 1
    35     3    31 1
    36     6    32 1
    37    10    33 1
    38    12    34 1
    39    12    35 1
    40    13    36 1
    41    13    37 1
    42    14    38 1
    43    14    39 1
    44    21    40 1
    45    21    41 1
    46    22    42 1
    47    22    43 1
    48    22    44 1
    49    23    45 1
    50    23    46 1
    51    23    47 1
    52    24    48 1
    53    25    49 1
    54    26    50 1
    55    51    21 1
@<TRIPOS>SUBSTRUCTURE
     1 3UX         1 TEMP              0 ****  ****    0 ROOT
