@<TRIPOS>MOLECULE
3UY
   48    52     1     0     0
SMALL
bcc


@<TRIPOS>ATOM
      1 C1           0.0000     0.0000     0.0000 ca         1 3UY      -0.019000
      2 C2           1.3940     0.0000     0.0000 cp         1 3UY      -0.053000
      3 C3           2.0860     0.0000     1.2090 ca         1 3UY      -0.061000
      4 C4           1.3940     0.0010     2.4060 ca         1 3UY      -0.222300
      5 C5           0.0070     0.0040     2.4040 ca         1 3UY       0.201100
      6 C6          -0.6840     0.0070     1.1950 ca         1 3UY      -0.126000
      7 C7           2.1390     0.0000    -1.2830 cp         1 3UY      -0.186300
      8 O8          -0.7050     0.0170     3.5600 os         1 3UY      -0.282900
      9 C9          -0.0420    -0.3720     4.7650 c3         1 3UY       0.135800
     10 C10          1.2780     0.4080     4.8640 c3         1 3UY       0.162100
     11 C11          2.1640    -0.0060     3.6950 c3         1 3UY       0.153500
     12 C12          3.3890     0.9220     3.5940 c3         1 3UY       0.201400
     13 O13          4.4240    -0.0180     3.2330 os         1 3UY      -0.385400
     14 C14          4.0390    -1.2380     3.6600 c2         1 3UY       0.324500
     15 N15          2.7720    -1.3200     3.9370 n2         1 3UY      -0.420900
     16 N16          4.9060    -2.2950     3.7890 nz         1 3UY       0.244400
     17 O17          1.9220     0.0890     6.0980 os         1 3UY      -0.425600
     18 C18          1.1650     0.4380     7.2590 c3         1 3UY       0.221400
     19 C19         -0.1560    -0.3340     7.2570 c3         1 3UY      -0.066400
     20 C20         -0.9320    -0.0420     5.9660 c3         1 3UY      -0.015400
     21 C21          0.2470    -1.8740     4.7330 c3         1 3UY      -0.044100
     22 C22          3.1630     0.9220    -1.5100 ca         1 3UY       0.566500
     23 N23          3.8240     0.9210    -2.6500 nb         1 3UY      -0.579000
     24 C24          3.5510     0.0610    -3.6140 ca         1 3UY       0.440200
     25 C25          2.5510    -0.8810    -3.4640 ca         1 3UY      -0.223300
     26 C26          1.8310    -0.9260    -2.2820 ca         1 3UY      -0.039000
     27 F27          3.4790     1.8210    -0.5520 f          1 3UY      -0.226200
     28 H1          -0.5430     0.0000    -0.9370 ha         1 3UY       0.122000
     29 H2           3.1690    -0.0000     1.2110 ha         1 3UY       0.112000
     30 H3          -1.7670     0.0070     1.1950 ha         1 3UY       0.133000
     31 H4           1.0810     1.4720     4.8160 h1         1 3UY       0.049700
     32 H5           3.6040     1.3860     4.5490 h1         1 3UY       0.067200
     33 H6           3.2500     1.6620     2.8150 h1         1 3UY       0.067200
     34 H7           5.0410    -2.4990     4.7590 hn         1 3UY       0.221800
     35 H8           4.5240    -3.0980     3.3290 hn         1 3UY       0.221800
     36 H9           1.7300     0.1830     8.1470 h1         1 3UY       0.020200
     37 H10          0.9600     1.5020     7.2480 h1         1 3UY       0.020200
     38 H11         -0.7510    -0.0280     8.1090 hc         1 3UY       0.035700
     39 H12          0.0500    -1.3960     7.3190 hc         1 3UY       0.035700
     40 H13         -1.8240    -0.6550     5.9330 hc         1 3UY       0.037700
     41 H14         -1.2040     1.0060     5.9370 hc         1 3UY       0.037700
     42 H15         -0.6260    -2.4170     5.0760 hc         1 3UY       0.026700
     43 H16          0.4830    -2.1750     3.7190 hc         1 3UY       0.026700
     44 H17          1.0870    -2.0950     5.3800 hc         1 3UY       0.026700
     45 H18          4.1170     0.0960    -4.5360 h4         1 3UY      -0.006900
     46 H19          2.3380    -1.5830    -4.2620 ha         1 3UY       0.127000
     47 H20          1.0420    -1.6550    -2.1400 ha         1 3UY       0.120000
     48 H163         5.7780    -2.0670     3.3530 hn         1 3UY       0.221800
@<TRIPOS>BOND
     1     1     2 ar  
     2     1     6 ar  
     3     1    28 1   
     4     2     3 ar  
     5     2     7 1   
     6     3     4 ar  
     7     3    29 1   
     8     4     5 ar  
     9     4    11 1   
    10     5     6 ar  
    11     5     8 1   
    12     6    30 1   
    13     7    22 ar  
    14     7    26 ar  
    15     8     9 1   
    16     9    10 1   
    17     9    20 1   
    18     9    21 1   
    19    10    11 1   
    20    10    17 1   
    21    10    31 1   
    22    11    12 1   
    23    11    15 1   
    24    12    13 1   
    25    12    32 1   
    26    12    33 1   
    27    13    14 1   
    28    14    15 2   
    29    14    16 1   
    30    16    34 1   
    31    16    35 1   
    32    16    48 1   
    33    17    18 1   
    34    18    19 1   
    35    18    36 1   
    36    18    37 1   
    37    19    20 1   
    38    19    38 1   
    39    19    39 1   
    40    20    40 1   
    41    20    41 1   
    42    21    42 1   
    43    21    43 1   
    44    21    44 1   
    45    22    23 ar  
    46    22    27 1   
    47    23    24 ar  
    48    24    25 ar  
    49    24    45 1   
    50    25    26 ar  
    51    25    46 1   
    52    26    47 1   
@<TRIPOS>SUBSTRUCTURE
     1 3UY         1 TEMP              0 ****  ****    0 ROOT
