@<TRIPOS>MOLECULE
3UZ
   51    52     1     0     0
SMALL
bcc


@<TRIPOS>ATOM
      1 CAC          0.0000     0.0000     0.0000 ca         1 3UZ      -0.088000
      2 CAB          1.3820     0.0000     0.0000 ca         1 3UZ      -0.096000
      3 CAA          2.0730     0.0000     1.1990 ca         1 3UZ       0.000400
      4 Cl1          3.8090     0.0020     1.1990 cl         1 3UZ      -0.024400
      5 CAF          1.3810    -0.0010     2.3960 ca         1 3UZ      -0.096000
      6 CAE         -0.0010    -0.0010     2.3940 ca         1 3UZ      -0.088000
      7 CAD         -0.6910    -0.0010     1.1970 ca         1 3UZ      -0.139300
      8 CAH         -2.1990     0.0040     1.1960 c3         1 3UZ       0.161400
      9 OAI         -2.6730     0.8690     2.2300 os         1 3UZ      -0.365600
     10 CAJ         -3.9300     1.4840     1.9420 c3         1 3UZ       0.261500
     11 CAK         -3.9320     2.8660     1.8450 c1         1 3UZ      -0.170100
     12 CAL         -3.9840     3.9410     1.1260 c1         1 3UZ      -0.085500
     13 CAM         -2.7050    -1.3930     1.4390 c          1 3UZ       0.553100
     14 OAN         -3.3280    -1.6460     2.4490 o          1 3UZ      -0.610100
     15 NAO         -2.4680    -2.3630     0.5330 ns         1 3UZ      -0.191900
     16 CAP         -2.9620    -3.7230     0.7700 c3         1 3UZ      -0.057000
     17 CAQ         -2.5590    -4.6220    -0.4010 c3         1 3UZ       0.031900
     18 CAR         -3.0660    -6.0210    -0.1580 ca         1 3UZ      -0.093300
     19 CAW         -4.3210    -6.3870    -0.6080 ca         1 3UZ      -0.198000
     20 CAV         -4.7890    -7.6710    -0.3860 ca         1 3UZ       0.143100
     21 OAX         -6.0220    -8.0330    -0.8280 os         1 3UZ      -0.300900
     22 CAY         -6.7830    -7.0380    -1.5150 c3         1 3UZ       0.232700
     23 CAS         -2.2740    -6.9350     0.5100 ca         1 3UZ      -0.114000
     24 CAT         -2.7350    -8.2190     0.7350 ca         1 3UZ      -0.167000
     25 CAU         -3.9920    -8.5910     0.2910 ca         1 3UZ       0.117100
     26 OAZ         -4.4480    -9.8540     0.5120 os         1 3UZ      -0.275900
     27 CBA         -3.5750   -10.7450     1.2080 c3         1 3UZ       0.062500
     28 CBB         -4.2280   -12.0550     1.3550 c1         1 3UZ       0.139900
     29 CBC         -4.7540   -13.0960     1.4920 c1         1 3UZ      -0.159500
     30 H1          -0.7760     0.1510    -0.7410 ha         1 3UZ       0.123000
     31 H2           1.7360    -0.1820    -1.0080 ha         1 3UZ       0.121500
     32 H3           1.7670    -0.0420     3.4080 ha         1 3UZ       0.121500
     33 H4          -0.4970    -0.0020     3.3570 ha         1 3UZ       0.123000
     34 H5          -2.5580     0.3570     0.2370 h1         1 3UZ       0.029700
     35 H6          -4.2180     1.4320     2.9850 h1         1 3UZ       0.041700
     36 H7          -4.5640     0.8210     1.3670 h1         1 3UZ       0.041700
     37 H8          -4.1380     5.0120     1.0880 ha         1 3UZ       0.127500
     38 H9          -1.5940    -2.4700     0.0580 hn         1 3UZ       0.176500
     39 H10         -2.8130    -3.8270     1.8380 h1         1 3UZ       0.054200
     40 H11         -3.9440    -4.1040     0.5200 h1         1 3UZ       0.054200
     41 H12         -1.4760    -4.6090    -0.3660 hc         1 3UZ       0.031700
     42 H13         -3.1620    -4.3610    -1.2620 hc         1 3UZ       0.031700
     43 H14         -4.5610    -5.8580    -1.5230 ha         1 3UZ       0.132000
     44 H15         -7.2930    -7.7210    -2.1850 h1         1 3UZ       0.009033
     45 H16         -6.2270    -6.2780    -2.0500 h1         1 3UZ       0.009033
     46 H17         -7.2830    -6.5620    -0.6800 h1         1 3UZ       0.009033
     47 H18         -1.1990    -6.8460     0.4080 ha         1 3UZ       0.113000
     48 H19         -2.0650    -8.8340     1.3250 ha         1 3UZ       0.131000
     49 H20         -4.0250   -11.6950     1.4700 h1         1 3UZ       0.002200
     50 H21         -2.9770    -9.9980     1.7160 h1         1 3UZ       0.002200
     51 H22         -5.0800   -14.0640     1.1320 ha         1 3UZ       0.133500
@<TRIPOS>BOND
     1     1     2 ar  
     2     1     7 ar  
     3     1    30 1   
     4     2     3 ar  
     5     2    31 1   
     6     3     4 1   
     7     3     5 ar  
     8     5     6 ar  
     9     5    32 1   
    10     6     7 ar  
    11     6    33 1   
    12     7     8 1   
    13     8     9 1   
    14     8    13 1   
    15     8    34 1   
    16     9    10 1   
    17    10    11 1   
    18    10    35 1   
    19    10    36 1   
    20    11    12 3   
    21    12    37 1   
    22    13    14 2   
    23    13    15 1   
    24    15    16 1   
    25    15    38 1   
    26    16    17 1   
    27    16    39 1   
    28    16    40 1   
    29    17    18 1   
    30    17    41 1   
    31    17    42 1   
    32    18    19 ar  
    33    18    23 ar  
    34    19    20 ar  
    35    19    43 1   
    36    20    21 1   
    37    20    25 ar  
    38    21    22 1   
    39    22    44 1   
    40    22    45 1   
    41    22    46 1   
    42    23    24 ar  
    43    23    47 1   
    44    24    25 ar  
    45    24    48 1   
    46    25    26 1   
    47    26    27 1   
    48    27    28 1   
    49    27    49 1   
    50    27    50 1   
    51    28    29 3   
    52    29    51 1   
@<TRIPOS>SUBSTRUCTURE
     1 3UZ         1 TEMP              0 ****  ****    0 ROOT
