@<TRIPOS>MOLECULE
molecule
   51    52     1     0     0
SMALL
bcc


@<TRIPOS>ATOM
      1 CAC          0.0000     0.0000     0.0000 ca         1 3UZ      -0.113000
      2 CAB          1.3820     0.0000     0.0000 ca         1 3UZ      -0.120000
      3 CAA          2.0730     0.0000     1.1990 ca         1 3UZ       0.059400
      4 Cl1          3.8090     0.0020     1.1990 cl         1 3UZ      -0.104400
      5 CAF          1.3810    -0.0010     2.3960 ca         1 3UZ      -0.120000
      6 CAE         -0.0010    -0.0010     2.3940 ca         1 3UZ      -0.113000
      7 CAD         -0.6910    -0.0010     1.1970 ca         1 3UZ      -0.118300
      8 CAH         -2.1990     0.0040     1.1960 c3         1 3UZ       0.110400
      9 OAI         -2.6730     0.8690     2.2300 os         1 3UZ      -0.377600
     10 CAJ         -3.9300     1.4840     1.9420 c3         1 3UZ       0.163500
     11 CAK         -3.9320     2.8660     1.8450 c1         1 3UZ      -0.149100
     12 CAL         -3.9840     3.9410     1.1260 c1         1 3UZ      -0.111500
     13 CAM         -2.7050    -1.3930     1.4390 c          1 3UZ       0.635100
     14 OAN         -3.3280    -1.6460     2.4490 o          1 3UZ      -0.576100
     15 NAO         -2.4680    -2.3630     0.5330 ns         1 3UZ      -0.553900
     16 CAP         -2.9620    -3.7230     0.7700 c3         1 3UZ       0.019000
     17 CAQ         -2.5590    -4.6220    -0.4010 c3         1 3UZ      -0.039100
     18 CAR         -3.0660    -6.0210    -0.1580 ca         1 3UZ      -0.095300
     19 CAW         -4.3210    -6.3870    -0.6080 ca         1 3UZ      -0.207000
     20 CAV         -4.7890    -7.6710    -0.3860 ca         1 3UZ       0.128100
     21 OAX         -6.0220    -8.0330    -0.8280 os         1 3UZ      -0.319900
     22 CAY         -6.7830    -7.0380    -1.5150 c3         1 3UZ       0.122700
     23 CAS         -2.2740    -6.9350     0.5100 ca         1 3UZ      -0.136000
     24 CAT         -2.7350    -8.2190     0.7350 ca         1 3UZ      -0.191000
     25 CAU         -3.9920    -8.5910     0.2910 ca         1 3UZ       0.132100
     26 OAZ         -4.4480    -9.8540     0.5120 os         1 3UZ      -0.311900
     27 CBA         -3.5750   -10.7450     1.2080 c3         1 3UZ      -0.097500
     28 CBB         -4.2280   -12.0550     1.3550 c1         1 3UZ      -0.076100
     29 CBC         -4.7540   -13.0960     1.4920 c1         1 3UZ      -0.121500
     30 H1          -0.7760     0.1510    -0.7410 ha         1 3UZ       0.151000
     31 H2           1.7360    -0.1820    -1.0080 ha         1 3UZ       0.151000
     32 H3           1.7670    -0.0420     3.4080 ha         1 3UZ       0.151000
     33 H4          -0.4970    -0.0020     3.3570 ha         1 3UZ       0.151000
     34 H5          -2.5580     0.3570     0.2370 h1         1 3UZ       0.064700
     35 H6          -4.2180     1.4320     2.9850 h1         1 3UZ       0.086200
     36 H7          -4.5640     0.8210     1.3670 h1         1 3UZ       0.086200
     37 H8          -4.1380     5.0120     1.0880 ha         1 3UZ       0.155500
     38 H9          -1.5940    -2.4700     0.0580 hn         1 3UZ       0.308500
     39 H10         -2.8130    -3.8270     1.8380 h1         1 3UZ       0.075700
     40 H11         -3.9440    -4.1040     0.5200 h1         1 3UZ       0.075700
     41 H12         -1.4760    -4.6090    -0.3660 hc         1 3UZ       0.061200
     42 H13         -3.1620    -4.3610    -1.2620 hc         1 3UZ       0.061200
     43 H14         -4.5610    -5.8580    -1.5230 ha         1 3UZ       0.146000
     44 H15         -7.2930    -7.7210    -2.1850 h1         1 3UZ       0.052033
     45 H16         -6.2270    -6.2780    -2.0500 h1         1 3UZ       0.052033
     46 H17         -7.2830    -6.5620    -0.6800 h1         1 3UZ       0.052033
     47 H18         -1.1990    -6.8460     0.4080 ha         1 3UZ       0.137000
     48 H19         -2.0650    -8.8340     1.3250 ha         1 3UZ       0.149000
     49 H20         -4.0250   -11.6950     1.4700 h1         1 3UZ       0.176700
     50 H21         -2.9770    -9.9980     1.7160 h1         1 3UZ       0.176700
     51 H22         -5.0800   -14.0640     1.1320 ha         1 3UZ       0.160500
@<TRIPOS>BOND
     1    22    21 1   
     2    29    28 3   
     3    26    25 1   
     4    26    27 1   
     5    28    27 1   
     6    25    24 ar  
     7    25    20 ar  
     8    21    20 1   
     9    24    23 ar  
    10    20    19 ar  
    11    23    18 ar  
    12    19    18 ar  
    13    18    17 1   
    14    17    16 1   
    15    16    15 1   
    16     2     1 ar  
    17     2     3 ar  
    18     4     3 1   
    19    15    13 1   
    20     1     7 ar  
    21     3     5 ar  
    22    13    14 2   
    23    13     8 1   
    24     7     8 1   
    25     7     6 ar  
    26     5     6 ar  
    27     8     9 1   
    28     9    10 1   
    29    10    11 1   
    30    11    12 3   
    31     1    30 1   
    32     2    31 1   
    33     5    32 1   
    34     6    33 1   
    35     8    34 1   
    36    10    35 1   
    37    10    36 1   
    38    12    37 1   
    39    15    38 1   
    40    16    39 1   
    41    16    40 1   
    42    17    41 1   
    43    17    42 1   
    44    19    43 1   
    45    22    44 1   
    46    22    45 1   
    47    22    46 1   
    48    23    47 1   
    49    24    48 1   
    50    27    49 1   
    51    27    50 1   
    52    29    51 1   
@<TRIPOS>SUBSTRUCTURE
     1 3UZ         1 TEMP              0 ****  ****    0 ROOT
