@<TRIPOS>MOLECULE
3V0
   43    42     1     0     0
SMALL
bcc


@<TRIPOS>ATOM
      1 C1          0.8210   -0.8600   -0.8640 c3        1 3V0     -0.021000
      2 F1          2.4010    0.5280    7.0350 f         1 3V0     -0.130000
      3 I1          6.5740    4.2510    5.1030 i         1 3V0      0.202000
      4 N1          2.0010   -0.1020   -0.7130 n2        1 3V0     -0.372000
      5 O1         -0.9250   -1.0670    2.4490 os        1 3V0     -0.044000
      6 C2         -0.0660   -1.0830    0.2570 c1        1 3V0     -0.041000
      7 N2         -2.6630   -1.5710    4.6050 n         1 3V0     -0.387000
      8 O2         -1.1910   -0.5210    5.9980 o         1 3V0     -0.487000
      9 C3          2.9880    0.5340   -0.5800 c1        1 3V0      0.112000
     10 O3         -0.5340   -1.3150    8.6210 oh        1 3V0     -0.385000
     11 C4          0.9660    0.2140    2.2750 c2        1 3V0     -0.117000
     12 O4          1.4950    0.4860    9.9580 oh        1 3V0     -0.339000
     13 C5          0.0880   -0.6150    1.5730 c2        1 3V0     -0.046000
     14 O5          0.4530   -1.1050   11.7180 oh        1 3V0     -0.085000
     15 C6         -0.6540   -0.5270    3.6930 c2        1 3V0     -0.127000
     16 C7          0.4930    0.2920    3.6410 c2        1 3V0      0.048000
     17 C8         -1.5180   -0.8700    4.8290 c2        1 3V0      0.409000
     18 C9          2.2930    1.4850    4.7910 c2        1 3V0      0.052000
     19 C10         2.9810    2.1350    3.8160 c2        1 3V0     -0.198000
     20 C11         4.3620    2.5260    4.0670 c2        1 3V0     -0.092000
     21 C12         4.6930    3.6070    4.7990 c2        1 3V0     -0.279000
     22 C13         4.1850    1.9400    6.3410 c1        1 3V0      0.196000
     23 C14         2.9940    1.3240    6.0980 c2        1 3V0     -0.228000
     24 C15        -0.5550    0.0990    8.6040 c3        1 3V0     -0.023000
     25 C16         0.0820    0.5270    9.9380 c3        1 3V0     -0.051000
     26 C17        -0.3780   -0.4060   11.0200 c2        1 3V0      0.298000
     27 H1          0.1740   -0.3830   -1.6750 h1        1 3V0      0.170000
     28 H2          1.0930   -1.8990   -1.2480 h1        1 3V0      0.170000
     29 HN2        -2.9190   -1.8430    3.6860 hn        1 3V0      0.249000
     30 H3          1.8540    0.7070    1.8780 ha        1 3V0      0.191000
     31 HN3         0.5360    0.8190    5.5720 hn        1 3V0      0.238000
     32 HO4         1.8230    0.2150    9.0830 ho        1 3V0      0.275000
     33 HO5         1.4080   -0.9740   11.4510 ho        1 3V0      0.330000
     34 H10         2.5650    2.3850    2.8290 ha        1 3V0      0.176000
     35 H11         5.1250    1.8830    3.5880 ha        1 3V0      0.171000
     36 H13         3.9290    4.2760    5.2230 h4        1 3V0      0.161000
     37 H15        -0.7550   -1.6270    7.7280 ho        1 3V0      0.278000
     38 H15A       -1.6100    0.4740    8.5310 h1        1 3V0      0.129500
     39 H16         0.0480    0.5070    7.7470 h1        1 3V0      0.129500
     40 H17        -0.2310    1.5840   10.2020 h1        1 3V0      0.191000
     41 H17A       -1.4510   -0.5560   11.2810 h4        1 3V0      0.240000
     42 N3          0.9560    1.0640    4.6920 nh        1 3V0     -0.215000
     43 H22        -3.2630   -1.7950    5.3610 hn        1 3V0      0.249000
@<TRIPOS>BOND
     1    1    4 1   
     2    1    6 1   
     3    1   27 1   
     4    1   28 1   
     5    2   23 1   
     6    3   21 1   
     7    4    9 1   
     8    5   13 1   
     9    5   15 1   
    10    6   13 1   
    11    7   17 1   
    12    7   29 1   
    13    7   43 1   
    14    8   17 1   
    15   10   24 1   
    16   10   37 1   
    17   11   13 1   
    18   11   16 1   
    19   11   30 1   
    20   12   25 1   
    21   12   32 1   
    22   14   26 1   
    23   14   33 1   
    24   15   16 1   
    25   15   17 1   
    26   16   42 1   
    27   18   19 1   
    28   18   23 1   
    29   18   42 1   
    30   19   20 1   
    31   19   34 1   
    32   20   21 1   
    33   20   35 1   
    34   21   36 1   
    35   22   23 1   
    36   24   25 1   
    37   24   38 1   
    38   24   39 1   
    39   25   26 1   
    40   25   40 1   
    41   26   41 1   
    42   31   42 1   
@<TRIPOS>SUBSTRUCTURE
     1 3V0         1 TEMP              0 ****  ****    0 ROOT
