@<TRIPOS>MOLECULE
3V1
   53    59     1     0     0
SMALL
bcc


@<TRIPOS>ATOM
      1 C1           0.0000     0.0000     0.0000 ca         1 3V1       0.071000
      2 C2           1.3880     0.0000     0.0000 ca         1 3V1      -0.111000
      3 C3           2.0810     0.0000     1.1950 ca         1 3V1      -0.084000
      4 C4           1.3960     0.0000     2.3940 ca         1 3V1      -0.149000
      5 C5           0.0060    -0.0010     2.4010 ca         1 3V1      -0.116000
      6 C6          -0.6920     0.0000     1.2010 ca         1 3V1      -0.134000
      7 N7          -0.6880    -0.0010     3.6150 ns         1 3V1       0.104000
      8 C8          -1.8570    -0.6630     3.7220 c2         1 3V1       0.313000
      9 O9          -2.2570    -1.3450     2.7980 o          1 3V1      -0.375000
     10 C10         -2.6460    -0.5600     4.9520 c2         1 3V1      -0.395000
     11 S11         -2.2230     0.3760     6.3840 ss         1 3V1       0.311000
     12 C12         -3.6610    -0.1340     7.1550 c2         1 3V1      -0.286000
     13 N13         -4.3380    -0.9170     6.3750 n2         1 3V1      -0.026000
     14 C14         -3.8370    -1.1660     5.1910 c2         1 3V1       0.037000
     15 C15         -4.5180    -2.0580     4.1850 c3         1 3V1      -0.111000
     16 Cl16        -4.1450     0.3310     8.7560 cl         1 3V1       0.175000
     17 O17         -0.6800     0.0060    -1.1770 os         1 3V1      -0.128000
     18 C18         -0.5960    -1.0970    -1.9670 ca         1 3V1       0.104000
     19 C19         -1.3380    -1.1690    -3.1380 ca         1 3V1      -0.152500
     20 C20         -1.2540    -2.2880    -3.9410 ca         1 3V1      -0.088000
     21 C21         -0.4260    -3.3430    -3.5780 ca         1 3V1      -0.119000
     22 C22          0.3150    -3.2700    -2.4060 ca         1 3V1      -0.088000
     23 C23          0.2340    -2.1480    -1.6060 ca         1 3V1      -0.152500
     24 N24         -0.3410    -4.4780    -4.3920 ns         1 3V1       0.119000
     25 C25         -0.1720    -5.6950    -3.8370 c2         1 3V1       0.253000
     26 O26         -0.1990    -5.8200    -2.6270 o          1 3V1      -0.367000
     27 C27          0.0460    -6.8700    -4.6920 c2         1 3V1      -0.108000
     28 C28          0.0770    -6.7230    -6.1170 c1         1 3V1      -0.090000
     29 N29          0.0860    -6.5960    -7.2450 n1         1 3V1      -0.050000
     30 C30          0.2170    -8.1000    -4.1310 c2         1 3V1       0.180000
     31 O31          0.1870    -8.2390    -2.7940 oh         1 3V1      -0.195000
     32 C32          0.4400    -9.3050    -5.0080 cx         1 3V1      -0.175000
     33 C33          0.8250   -10.6180    -4.3220 cx         1 3V1      -0.263000
     34 C34         -0.5760   -10.4460    -4.9120 DU         1 3V1      -0.502000
     35 H1           1.4620     0.0410    -1.0800 ha         1 3V1       0.142000
     36 H2           3.0170    -0.0120     1.7400 ha         1 3V1       0.135000
     37 H3           2.1090     0.0360     3.2090 ha         1 3V1       0.113000
     38 H4          -1.6800     0.0060     1.6450 ha         1 3V1       0.164000
     39 H5          -0.6190     0.8880     4.0670 hn         1 3V1       0.081000
     40 H6          -5.5480    -1.8280     3.9380 hc         1 3V1       0.073667
     41 H7          -4.0870    -2.0180     3.1920 hc         1 3V1       0.073667
     42 H8          -4.3770    -3.1280     4.2730 hc         1 3V1       0.073667
     43 H9          -2.2130    -0.5600    -3.3300 ha         1 3V1       0.129000
     44 H10         -1.5710    -2.2910    -4.9770 ha         1 3V1       0.123000
     45 H11          0.9710    -4.0570    -2.0520 ha         1 3V1       0.123000
     46 H12          0.8940    -2.2530    -0.7530 ha         1 3V1       0.129000
     47 H13         -0.9500    -4.5790    -5.1800 hn         1 3V1       0.075000
     48 H14         -0.7140    -8.5070    -2.7250 ho         1 3V1       0.204000
     49 H15         -0.2260    -9.5990    -5.8110 DU         1 3V1       0.256000
     50 H16          0.1650   -11.3820    -4.7140 DU         1 3V1       0.267000
     51 H17          0.8710   -10.3380    -3.2760 hc         1 3V1       0.093000
     52 H18         -0.1390   -11.3750    -5.2580 DU         1 3V1       0.229000
     53 H19         -1.4160   -10.2710    -4.2510 ha         1 3V1       0.114000
@<TRIPOS>BOND
     1     1     2 1   
     2     1     6 1   
     3     1    17 1   
     4     2     3 1   
     5     2    35 1   
     6     3     4 1   
     7     3    36 1   
     8     4     5 1   
     9     4    37 1   
    10     5     6 1   
    11     5     7 1   
    12     6    38 1   
    13     7     8 1   
    14     7    39 1   
    15     8     9 1   
    16     8    10 1   
    17    10    11 1   
    18    10    14 1   
    19    11    12 1   
    20    12    13 1   
    21    12    16 1   
    22    13    14 1   
    23    14    15 1   
    24    15    40 1   
    25    15    41 1   
    26    15    42 1   
    27    17    18 1   
    28    18    19 1   
    29    18    23 1   
    30    19    20 1   
    31    19    43 1   
    32    20    21 1   
    33    20    44 1   
    34    21    22 1   
    35    21    24 1   
    36    22    23 1   
    37    22    45 1   
    38    23    46 1   
    39    24    25 1   
    40    24    47 1   
    41    25    26 1   
    42    25    27 1   
    43    27    28 1   
    44    27    30 1   
    45    28    29 1   
    46    30    31 1   
    47    30    32 1   
    48    31    48 1   
    49    32    33 1   
    50    32    34 1   
    51    32    49 1   
    52    33    34 1   
    53    33    50 1   
    54    33    51 1   
    55    34    49 1   
    56    34    50 1   
    57    34    52 1   
    58    34    53 1   
    59    50    52 1   
@<TRIPOS>SUBSTRUCTURE
     1 3V1         1 TEMP              0 ****  ****    0 ROOT
