@<TRIPOS>MOLECULE
molecule
   53    56     1     0     0
SMALL
bcc


@<TRIPOS>ATOM
      1 C1           0.0000     0.0000     0.0000 ca         1 3V1       0.074100
      2 C2           1.3880     0.0000     0.0000 ca         1 3V1      -0.191000
      3 C3           2.0810     0.0000     1.1950 ca         1 3V1      -0.108000
      4 C4           1.3960     0.0000     2.3940 ca         1 3V1      -0.130000
      5 C5           0.0060    -0.0010     2.4010 ca         1 3V1       0.031600
      6 C6          -0.6920     0.0000     1.2010 ca         1 3V1      -0.131000
      7 N7          -0.6880    -0.0010     3.6150 ns         1 3V1      -0.485100
      8 C8          -1.8570    -0.6630     3.7220 c          1 3V1       0.749700
      9 O9          -2.2570    -1.3450     2.7980 o          1 3V1      -0.575100
     10 C10         -2.6460    -0.5600     4.9520 cc         1 3V1      -0.237000
     11 S11         -2.2230     0.3760     6.3840 ss         1 3V1      -0.144300
     12 C12         -3.6610    -0.1340     7.1550 cd         1 3V1       0.547400
     13 N13         -4.3380    -0.9170     6.3750 nc         1 3V1      -0.680000
     14 C14         -3.8370    -1.1660     5.1910 cd         1 3V1       0.511600
     15 C15         -4.5180    -2.0580     4.1850 c3         1 3V1      -0.182400
     16 Cl16        -4.1450     0.3310     8.7560 cl         1 3V1      -0.095000
     17 O17         -0.6800     0.0060    -1.1770 os         1 3V1      -0.250200
     18 C18         -0.5960    -1.0970    -1.9670 ca         1 3V1       0.143100
     19 C19         -1.3380    -1.1690    -3.1380 ca         1 3V1      -0.175000
     20 C20         -1.2540    -2.2880    -3.9410 ca         1 3V1      -0.124500
     21 C21         -0.4260    -3.3430    -3.5780 ca         1 3V1       0.008600
     22 C22          0.3150    -3.2700    -2.4060 ca         1 3V1      -0.124500
     23 C23          0.2340    -2.1480    -1.6060 ca         1 3V1      -0.175000
     24 N24         -0.3410    -4.4780    -4.3920 ns         1 3V1      -0.452100
     25 C25         -0.1720    -5.6950    -3.8370 c          1 3V1       0.685300
     26 O26         -0.1990    -5.8200    -2.6270 o          1 3V1      -0.574100
     27 C27          0.0460    -6.8700    -4.6920 ce         1 3V1      -0.165900
     28 C28          0.0770    -6.7230    -6.1170 cg         1 3V1       0.214500
     29 N29          0.1050    -6.5880    -7.2440 n1         1 3V1      -0.375800
     30 C30          0.2170    -8.1000    -4.1310 c2         1 3V1       0.213900
     31 O31          0.1870    -8.2390    -2.7940 oh         1 3V1      -0.389100
     32 C32          0.4400    -9.3050    -5.0080 cx         1 3V1      -0.195500
     33 C33          0.8250   -10.6180    -4.3220 cx         1 3V1      -0.116900
     34 C34         -0.5760   -10.4460    -4.9120 cx         1 3V1      -0.116900
     35 H1           1.6200    -0.1750    -1.0440 ha         1 3V1       0.159000
     36 H2           3.0090     0.3020     0.7250 ha         1 3V1       0.164000
     37 H3           1.9640    -0.0290     3.3160 ha         1 3V1       0.139000
     38 H4          -1.7360     0.1540     0.9570 ha         1 3V1       0.166000
     39 H5          -0.1810     0.7550     4.0290 hn         1 3V1       0.343500
     40 H6          -5.0620    -1.6040     3.3650 hc         1 3V1       0.071700
     41 H7          -4.0940    -2.5720     3.3320 hc         1 3V1       0.071700
     42 H8          -5.0750    -2.8650     4.6460 hc         1 3V1       0.071700
     43 H9          -2.1680    -0.5460    -3.4470 ha         1 3V1       0.154000
     44 H10         -2.0060    -2.2020    -4.7160 ha         1 3V1       0.153500
     45 H11          0.9290    -4.1590    -2.3180 ha         1 3V1       0.153500
     46 H12          0.3690    -2.4810    -0.5840 ha         1 3V1       0.154000
     47 H13         -0.8330    -4.3840    -5.2590 hn         1 3V1       0.320500
     48 H14          0.2060    -9.1720    -2.9330 ho         1 3V1       0.415000
     49 H15          0.9770    -9.4320    -5.9400 hc         1 3V1       0.125700
     50 H16          1.5320   -11.3370    -4.7170 hc         1 3V1       0.088450
     51 H17          0.7130   -10.4630    -3.2560 hc         1 3V1       0.088450
     52 H18         -1.4780   -10.0650    -4.4490 hc         1 3V1       0.088450
     53 H19         -0.7400   -10.8450    -5.9060 hc         1 3V1       0.088450
@<TRIPOS>BOND
     1    29    28 3   
     2    28    27 1   
     3    26    25 2   
     4    16    12 1   
     5    13    12 2   
     6    13    14 1   
     7    12    11 1   
     8    15    14 1   
     9    14    10 2   
    10    27    25 1   
    11    27    30 2   
    12    25    24 1   
    13     9     8 2   
    14    20    19 ar  
    15    20    21 ar  
    16    19    18 ar  
    17    11    10 1   
    18    10     8 1   
    19     8     7 1   
    20    32    30 1   
    21    32    34 1   
    22    32    33 1   
    23    30    31 1   
    24    24    21 1   
    25    21    22 ar  
    26    18    17 1   
    27    18    23 ar  
    28    17     1 1   
    29     6     1 ar  
    30     6     5 ar  
    31     7     5 1   
    32    34    33 1   
    33     1     2 ar  
    34     5     4 ar  
    35    22    23 ar  
    36     2     3 ar  
    37     4     3 ar  
    38     2    35 1   
    39     3    36 1   
    40     4    37 1   
    41     6    38 1   
    42     7    39 1   
    43    15    40 1   
    44    15    41 1   
    45    15    42 1   
    46    19    43 1   
    47    20    44 1   
    48    22    45 1   
    49    23    46 1   
    50    24    47 1   
    51    31    48 1   
    52    32    49 1   
    53    33    50 1   
    54    33    51 1   
    55    34    52 1   
    56    34    53 1   
@<TRIPOS>SUBSTRUCTURE
     1 3V1         1 TEMP              0 ****  ****    0 ROOT
