@<TRIPOS>MOLECULE
3V3
   41    40     1     0     0
SMALL
bcc


@<TRIPOS>ATOM
      1 C1           0.0000     0.0000     0.0000 c3         1 3V3      -0.049200
      2 C2           1.5300     0.0000     0.0000 c3         1 3V3       0.201400
      3 C4           3.4310    -0.0010     1.4600 c3         1 3V3       0.222400
      4 O3           2.0060     0.0000     1.3470 os         1 3V3      -0.440600
      5 C5           3.8260     0.0010     2.9390 c3         1 3V3       0.210400
      6 C7           3.7180    -1.3210     4.9350 c3         1 3V3       0.209400
      7 C8           3.2160    -2.6600     5.4780 c3         1 3V3       0.208400
      8 C10          3.5320    -5.0290     5.2860 c3         1 3V3       0.205400
      9 O6           3.3970    -1.2190     3.5460 os         1 3V3      -0.404600
     10 C11          4.3530    -6.0880     4.5480 c3         1 3V3       0.210400
     11 C13          6.5870    -6.9130     4.2800 c3         1 3V3       0.212400
     12 C14          8.0280    -6.6910     4.7460 c3         1 3V3      -0.136400
     13 C15          8.9330    -7.6900     4.0740 c          1 3V3       0.982600
     14 N1          -0.4900     1.2560     0.5850 nz         1 3V3       0.085400
     15 O9           3.9270    -3.7270     4.8470 os         1 3V3      -0.389600
     16 O12          5.7290    -5.9650     4.9160 os         1 3V3      -0.427600
     17 O16         10.2510    -7.6840     4.3340 o          1 3V3      -0.900800
     18 H1          -0.3610    -0.8360     0.5870 hx         1 3V3       0.089200
     19 H2          -0.3610    -0.0900    -1.0170 hx         1 3V3       0.089200
     20 H3           1.8910     0.8840    -0.5110 h1         1 3V3       0.028200
     21 H4           1.8910    -0.8850    -0.5110 h1         1 3V3       0.028200
     22 H5           3.8310     0.8830     0.9780 h1         1 3V3       0.012200
     23 H6           3.8310    -0.8860     0.9800 h1         1 3V3       0.012200
     24 H7           3.3530     0.8380     3.4380 h1         1 3V3       0.003200
     25 H8           4.9020     0.0890     3.0260 h1         1 3V3       0.003200
     26 H9           4.7920    -1.2600     5.0630 h1         1 3V3      -0.000300
     27 H10          3.2430    -0.5110     5.4760 h1         1 3V3      -0.000300
     28 H11          3.3810    -2.7000     6.5480 h1         1 3V3      -0.007800
     29 H12          2.1570    -2.7590     5.2720 h1         1 3V3      -0.007800
     30 H13          2.4790    -5.1770     5.0760 h1         1 3V3      -0.012300
     31 H14          3.7030    -5.1180     6.3520 h1         1 3V3      -0.012300
     32 H15          3.9940    -7.0740     4.8150 h1         1 3V3      -0.007800
     33 H16          4.2510    -5.9430     3.4790 h1         1 3V3      -0.007800
     34 H17          6.5320    -6.7860     3.2050 h1         1 3V3      -0.001300
     35 H18          6.2740    -7.9170     4.5410 h1         1 3V3      -0.001300
     36 H19          8.3410    -5.6870     4.4850 hc         1 3V3       0.012200
     37 H20          8.0830    -6.8190     5.8200 hc         1 3V3       0.012200
     38 O1           8.4740    -8.4980     3.3010 o          1 3V3      -0.900800
     39 H22         -1.4450     1.3970     0.3200 hn         1 3V3       0.223800
     40 H23         -0.4230     1.2080     1.5820 hn         1 3V3       0.223800
     41 H131         0.0650     2.0190     0.2490 hn         1 3V3       0.223800
@<TRIPOS>BOND
     1     1     2 1   
     2     1    14 1   
     3     1    18 1   
     4     1    19 1   
     5     2     4 1   
     6     2    20 1   
     7     2    21 1   
     8     3     4 1   
     9     3     5 1   
    10     3    22 1   
    11     3    23 1   
    12     5     9 1   
    13     5    24 1   
    14     5    25 1   
    15     6     7 1   
    16     6     9 1   
    17     6    26 1   
    18     6    27 1   
    19     7    15 1   
    20     7    28 1   
    21     7    29 1   
    22     8    10 1   
    23     8    15 1   
    24     8    30 1   
    25     8    31 1   
    26    10    16 1   
    27    10    32 1   
    28    10    33 1   
    29    11    12 1   
    30    11    16 1   
    31    11    34 1   
    32    11    35 1   
    33    12    13 1   
    34    12    36 1   
    35    12    37 1   
    36    13    17 1   
    37    13    38 1   
    38    14    39 1   
    39    14    40 1   
    40    14    41 1   
@<TRIPOS>SUBSTRUCTURE
     1 3V3         1 TEMP              0 ****  ****    0 ROOT
