@<TRIPOS>MOLECULE
molecule
   26    27     1     0     0
SMALL
bcc


@<TRIPOS>ATOM
      1 C10          0.0000     0.0000     0.0000 c3         1 3V4      -0.058600
      2 C7           1.5300     0.0000     0.0000 cx         1 3V4      -0.120000
      3 C9           2.1890    -0.7820    -1.1370 c3         1 3V4      -0.058600
      4 C6           2.2350     0.0000     1.3580 cx         1 3V4      -0.120700
      5 C1           1.3440     0.0730     2.6090 c3         1 3V4      -0.009200
      6 C5           2.2350     1.2680     0.4850 cx         1 3V4      -0.118700
      7 C4           1.3440     2.4110     0.9990 c3         1 3V4      -0.016200
      8 C3           1.5110     2.5130     2.4960 c2         1 3V4      -0.178200
      9 C2           1.5110     1.4340     3.2380 c2         1 3V4      -0.128400
     10 C8           1.6780     1.5540     4.7310 c3         1 3V4      -0.049900
     11 H1          -0.3610    -1.0150     0.1170 hc         1 3V4       0.038533
     12 H2          -0.3610     0.4060    -0.9370 hc         1 3V4       0.038533
     13 H3          -0.3610     0.6080     0.8200 hc         1 3V4       0.038533
     14 H4           3.2660    -0.7080    -1.0490 hc         1 3V4       0.038533
     15 H5           1.8920    -1.8220    -1.0800 hc         1 3V4       0.038533
     16 H6           1.8750    -0.3690    -2.0880 hc         1 3V4       0.038533
     17 H7           3.1810    -0.5260     1.4030 hc         1 3V4       0.084700
     18 H8           1.6460    -0.6920     3.3140 hc         1 3V4       0.053700
     19 H9           0.3090    -0.0710     2.3270 hc         1 3V4       0.053700
     20 H10          3.1810     1.4980     0.0090 hc         1 3V4       0.084700
     21 H11          0.3080     2.1990     0.7630 hc         1 3V4       0.052700
     22 H12          1.6450     3.3430     0.5360 hc         1 3V4       0.052700
     23 H13          1.6320     3.4850     2.9590 ha         1 3V4       0.124000
     24 H16          2.7120     1.3680     4.9950 hc         1 3V4       0.039700
     25 H17          1.0440     0.8280     5.2250 hc         1 3V4       0.039700
     26 H18          1.3990     2.5520     5.0460 hc         1 3V4       0.039700
@<TRIPOS>BOND
     1     3     2 1
     2     1     2 1
     3     2     4 1
     4     2     6 1
     5     4     6 1
     6     4     5 1
     7     6     7 1
     8     5     9 1
     9     7     8 1
    10     8     9 2
    11     9    10 1
    12     1    11 1
    13     1    12 1
    14     1    13 1
    15     3    14 1
    16     3    15 1
    17     3    16 1
    18     4    17 1
    19     5    18 1
    20     5    19 1
    21     6    20 1
    22     7    21 1
    23     7    22 1
    24     8    23 1
    25    10    24 1
    26    10    25 1
    27    10    26 1
@<TRIPOS>SUBSTRUCTURE
     1 3V4         1 TEMP              0 ****  ****    0 ROOT
