@<TRIPOS>MOLECULE
3V4
   26    27     1     0     0
SMALL
bcc


@<TRIPOS>ATOM
      1 C10        -0.0000    0.0930    0.3010 c3        1 3V4     -0.063600
      2 C7          1.4750    0.0400    0.0740 cx        1 3V4     -0.107000
      3 C9          1.8470   -0.7800   -1.1220 c3        1 3V4     -0.063600
      4 C6          2.4280    0.0210    1.2540 cx        1 3V4     -0.106700
      5 C1          1.9230    0.0450    2.6610 c3        1 3V4     -0.012200
      6 C5          2.3380    1.2470    0.3850 cx        1 3V4     -0.106700
      7 C4          1.7430    2.5100    0.9220 c3        1 3V4     -0.015200
      8 C3          1.4400    2.4780    2.3710 c2        1 3V4     -0.170200
      9 C2          1.5180    1.3920    3.1540 c2        1 3V4     -0.118400
     10 C8          1.2000    1.4470    4.6020 c3        1 3V4     -0.057900
     11 H1         -0.2460    0.7150    1.1980 hc        1 3V4      0.038033
     12 H2         -0.4010   -0.9380    0.4630 hc        1 3V4      0.038033
     13 H3         -0.5090    0.5370   -0.5890 hc        1 3V4      0.038033
     14 H4          2.9550   -0.8030   -1.2670 hc        1 3V4      0.038033
     15 H5          1.3790   -0.3520   -2.0420 hc        1 3V4      0.038033
     16 H6          1.4850   -1.8300   -0.9950 hc        1 3V4      0.038033
     17 H7          3.3330   -0.6120    1.1450 hc        1 3V4      0.075700
     18 H8          2.7230   -0.3560    3.3440 hc        1 3V4      0.051700
     19 H9          1.0400   -0.6480    2.7480 hc        1 3V4      0.051700
     20 H10         3.1820    1.4410   -0.3090 hc        1 3V4      0.075700
     21 H11         0.7950    2.7410    0.3590 hc        1 3V4      0.051700
     22 H12         2.4540    3.3620    0.7280 hc        1 3V4      0.051700
     23 H13         1.1270    3.4480    2.7930 ha        1 3V4      0.119000
     24 H16         0.4180    0.6870    4.8540 hc        1 3V4      0.039700
     25 H17         0.8220    2.4550    4.9030 hc        1 3V4      0.039700
     26 H18         2.1140    1.2190    5.2050 hc        1 3V4      0.039700
@<TRIPOS>BOND
     1    1    2 1   
     2    1   11 1   
     3    1   12 1   
     4    1   13 1   
     5    2    3 1   
     6    2    4 1   
     7    2    6 1   
     8    3   14 1   
     9    3   15 1   
    10    3   16 1   
    11    4    5 1   
    12    4    6 1   
    13    4   17 1   
    14    5    9 1   
    15    5   18 1   
    16    5   19 1   
    17    6    7 1   
    18    6   20 1   
    19    7    8 1   
    20    7   21 1   
    21    7   22 1   
    22    8    9 2   
    23    8   23 1   
    24    9   10 1   
    25   10   24 1   
    26   10   25 1   
    27   10   26 1   
@<TRIPOS>SUBSTRUCTURE
     1 3V4         1 TEMP              0 ****  ****    0 ROOT
