@<TRIPOS>MOLECULE
3V5
   38    38     1     0     0
SMALL
bcc


@<TRIPOS>ATOM
      1 OAF          0.0000     0.0000     0.0000 o          1 3V5      -0.868300
      2 CAS          1.2080     0.0000     0.0000 c          1 3V5       0.957600
      3 OAH          1.8800     0.0000     1.1630 o          1 3V5      -0.868300
      4 CAX          1.9620    -0.0060    -1.3050 c3         1 3V5       0.036500
      5 CAW          2.3030     1.4410    -1.7210 c3         1 3V5       0.094400
      6 SAQ          4.0210     1.8420    -1.3010 ss         1 3V5      -0.315200
      7 CAK          4.1360     3.6090    -1.6950 c3         1 3V5       0.187900
      8 NAN          3.4470     4.3890    -0.6590 n7         1 3V5      -0.496200
      9 CAJ          4.3910     4.8580     0.3630 c3         1 3V5       0.127000
     10 NAB          4.8290     6.2220     0.0360 nz         1 3V5      -0.002600
     11 CAM          2.1060     1.4170    -3.2600 c3         1 3V5      -0.057400
     12 NAO          1.1180    -0.5790    -2.3700 n7         1 3V5      -0.614200
     13 CAV          0.9030     0.4520    -3.4070 c3         1 3V5       0.154500
     14 CAY          0.9000    -0.1840    -4.7980 c3         1 3V5      -0.275700
     15 CAR         -0.3420    -1.0230    -4.9630 c          1 3V5       0.600100
     16 CAA         -0.8910    -1.2940    -6.3400 c3         1 3V5      -0.090100
     17 OAE         -0.8970    -1.4780    -3.9910 o          1 3V5      -0.517100
     18 CAT          2.1180    -1.0560    -4.9560 c          1 3V5       0.691900
     19 OAG          2.9190    -0.8230    -5.8280 o          1 3V5      -0.584100
     20 H2           2.8730    -0.5830    -1.2080 h1         1 3V5       0.053700
     21 H3           1.6160     2.1410    -1.2610 h1         1 3V5       0.065700
     22 H4           5.1780     3.9030    -1.7350 h2         1 3V5       0.037200
     23 H5           3.6720     3.7950    -2.6560 h2         1 3V5       0.037200
     24 H6           2.9930     5.1760    -1.0800 hn         1 3V5       0.244800
     25 H8           3.9060     4.8570     1.3310 hx         1 3V5       0.102700
     26 H9           5.2510     4.1990     0.3890 hx         1 3V5       0.102700
     27 H10          5.2780     6.2230    -0.8580 hn         1 3V5       0.226800
     28 H11          4.0350     6.8300     0.0110 hn         1 3V5       0.226800
     29 H13          1.8560     2.4040    -3.6320 hc         1 3V5       0.022700
     30 H14          2.9830     1.0180    -3.7540 hc         1 3V5       0.022700
     31 H15          0.2360    -0.8540    -1.9850 hn         1 3V5       0.326800
     32 H17         -0.0250     0.9800    -3.2250 h1         1 3V5       0.029700
     33 H18          0.9130     0.5940    -5.5520 hc         1 3V5       0.049700
     34 H19         -0.2160    -1.9510    -6.8750 hc         1 3V5       0.023367
     35 H20         -0.9900    -0.3600    -6.8800 hc         1 3V5       0.023367
     36 H21         -1.8630    -1.7660    -6.2550 hc         1 3V5       0.023367
     37 H22          2.2560    -1.9150    -4.3100 h4         1 3V5      -0.002800
     38 HAB3         5.4660     6.5450     0.7370 hn         1 3V5       0.226800
@<TRIPOS>BOND
     1     1     2 1   
     2     2     3 1   
     3     2     4 1   
     4     4     5 1   
     5     4    12 1   
     6     4    20 1   
     7     5     6 1   
     8     5    11 1   
     9     5    21 1   
    10     6     7 1   
    11     7     8 1   
    12     7    22 1   
    13     7    23 1   
    14     8     9 1   
    15     8    24 1   
    16     9    10 1   
    17     9    25 1   
    18     9    26 1   
    19    10    27 1   
    20    10    28 1   
    21    10    38 1   
    22    11    13 1   
    23    11    29 1   
    24    11    30 1   
    25    12    13 1   
    26    12    31 1   
    27    13    14 1   
    28    13    32 1   
    29    14    15 1   
    30    14    18 1   
    31    14    33 1   
    32    15    16 1   
    33    15    17 2   
    34    16    34 1   
    35    16    35 1   
    36    16    36 1   
    37    18    19 2   
    38    18    37 1   
@<TRIPOS>SUBSTRUCTURE
     1 3V5         1 TEMP              0 ****  ****    0 ROOT
