@<TRIPOS>MOLECULE
molecule
   38    38     1     0     0
SMALL
bcc


@<TRIPOS>ATOM
      1 OAF          0.0000     0.0000     0.0000 o          1 3V5      -0.823800
      2 CAS          1.2080     0.0000     0.0000 c          1 3V5       0.873600
      3 OAH          1.8800     0.0000     1.1630 o          1 3V5      -0.823800
      4 CAX          1.9620    -0.0060    -1.3050 c3         1 3V5       0.072500
      5 CAW          2.3030     1.4410    -1.7210 c3         1 3V5       0.028400
      6 SAQ          4.0210     1.8420    -1.3010 ss         1 3V5      -0.230200
      7 CAK          4.1360     3.6090    -1.6950 c3         1 3V5       0.183900
      8 NAN          3.4470     4.3890    -0.6590 n7         1 3V5      -0.754200
      9 CAJ          4.3910     4.8580     0.3630 c3         1 3V5       0.326000
     10 NAB          4.8290     6.2220     0.0360 nz         1 3V5      -0.855600
     11 CAM          2.1060     1.4170    -3.2600 c3         1 3V5      -0.103400
     12 NAO          1.1180    -0.5790    -2.3700 n7         1 3V5      -0.809200
     13 CAV          0.9030     0.4520    -3.4070 c3         1 3V5       0.183500
     14 CAY          0.9000    -0.1840    -4.7980 c3         1 3V5      -0.283700
     15 CAR         -0.3420    -1.0230    -4.9630 c          1 3V5       0.562100
     16 CAA         -0.8910    -1.2940    -6.3400 c3         1 3V5      -0.195100
     17 OAE         -0.8970    -1.4780    -3.9910 o          1 3V5      -0.487100
     18 CAT          2.1180    -1.0560    -4.9560 c          1 3V5       0.607900
     19 OAG          2.9190    -0.8230    -5.8280 o          1 3V5      -0.552100
     20 H2           2.8730    -0.5830    -1.2080 h1         1 3V5       0.076700
     21 H3           1.6160     2.1410    -1.2610 h1         1 3V5       0.090700
     22 H4           5.1780     3.9030    -1.7350 h2         1 3V5       0.059200
     23 H5           3.6720     3.7950    -2.6560 h2         1 3V5       0.059200
     24 H6           2.9930     5.1760    -1.0800 hn         1 3V5       0.351800
     25 H8           3.9060     4.8570     1.3310 hx         1 3V5       0.130700
     26 H9           5.2510     4.1990     0.3890 hx         1 3V5       0.130700
     27 H10          5.2780     6.2230    -0.8580 hn         1 3V5       0.446467
     28 H11          4.0350     6.8300     0.0110 hn         1 3V5       0.446467
     29 H13          1.8560     2.4040    -3.6320 hc         1 3V5       0.045200
     30 H14          2.9830     1.0180    -3.7540 hc         1 3V5       0.045200
     31 H15          0.2360    -0.8540    -1.9850 hn         1 3V5       0.411800
     32 H17         -0.0250     0.9800    -3.2250 h1         1 3V5       0.052700
     33 H18          0.9130     0.5940    -5.5520 hc         1 3V5       0.071700
     34 H19         -0.2160    -1.9510    -6.8750 hc         1 3V5       0.059700
     35 H20         -0.9900    -0.3600    -6.8800 hc         1 3V5       0.059700
     36 H21         -1.8630    -1.7660    -6.2550 hc         1 3V5       0.059700
     37 H22          2.2560    -1.9150    -4.3100 h4         1 3V5       0.037200
     38 HAB3         5.4660     6.5450     0.7370 hn         1 3V5       0.446467
@<TRIPOS>BOND
     1     8     9 1   
     2     8     7 1   
     3     9    10 1   
     4     7     6 1   
     5     6     5 1   
     6     5     4 1   
     7     5    11 1   
     8     1     2 1   
     9     4     2 1   
    10     4    12 1   
    11     2     3 1   
    12    11    13 1   
    13    12    13 1   
    14    13    14 1   
    15    14    18 1   
    16    14    15 1   
    17    18    19 2   
    18    15    16 1   
    19    15    17 2   
    20     4    20 1   
    21     5    21 1   
    22     7    22 1   
    23     7    23 1   
    24     8    24 1   
    25     9    25 1   
    26     9    26 1   
    27    10    27 1   
    28    10    28 1   
    29    11    29 1   
    30    11    30 1   
    31    12    31 1   
    32    13    32 1   
    33    14    33 1   
    34    16    34 1   
    35    16    35 1   
    36    16    36 1   
    37    18    37 1   
    38    38    10 1   
@<TRIPOS>SUBSTRUCTURE
     1 3V5         1 TEMP              0 ****  ****    0 ROOT
