@<TRIPOS>MOLECULE
molecule
   47    48     1     0     0
SMALL
bcc


@<TRIPOS>ATOM
      1 ClI          0.0000     0.0000     0.0000 cl         1 3V6      -0.140400
      2 CAT          1.8030     0.0000     0.0000 c3         1 3V6       0.137100
      3 ClJ          2.4040     1.4720    -0.8500 cl         1 3V6      -0.140400
      4 CAX          2.3130     0.0000     1.4430 c3         1 3V6       0.158800
      5 CAC          1.9160     1.3230     2.1030 c3         1 3V6      -0.093100
      6 OAM          1.6910    -1.0660     2.1460 os         1 3V6      -0.397900
      7 CAO          2.1130    -2.3240     1.8540 c          1 3V6       0.734800
      8 OAE          1.3430    -3.2250     1.5800 o          1 3V6      -0.507500
      9 CAQ          3.5300    -2.5110     1.8930 ce         1 3V6      -0.317400
     10 CAN          4.0520    -3.7110     1.6590 c2         1 3V6       0.182900
     11 OAG          3.2100    -4.7280     1.3840 oh         1 3V6      -0.476100
     12 CAK          5.5250    -3.9970     1.6860 c3         1 3V6      -0.084200
     13 CAS          6.2570    -2.8830     2.4380 c3         1 3V6      -0.096700
     14 CAB          7.7670    -3.0520     2.2670 c3         1 3V6      -0.092100
     15 CAU          5.8180    -1.5360     1.8540 c3         1 3V6       0.155100
     16 OAH          6.6290    -0.4920     2.3980 oh         1 3V6      -0.586800
     17 CAW          4.3520    -1.2900     2.2190 c3         1 3V6      -0.008500
     18 CAV          3.8290    -0.1000     1.4240 c3         1 3V6       0.087700
     19 NAL          4.2770    -0.2260     0.0350 ns         1 3V6      -0.550900
     20 C            5.1820     0.6410    -0.4620 c          1 3V6       0.649100
     21 O            5.6910     1.4680     0.2650 o          1 3V6      -0.586100
     22 CA           5.5600     0.5830    -1.9190 c3         1 3V6       0.017500
     23 CB           6.1510    -0.7930    -2.2380 c3         1 3V6      -0.119100
     24 N            6.5570     1.6220    -2.2080 nz         1 3V6      -0.796600
     25 H1           2.1640    -0.8850    -0.5110 h2         1 3V6       0.083700
     26 H2           2.3370     2.1480     1.5400 hc         1 3V6       0.071700
     27 H3           2.2940     1.3480     3.1180 hc         1 3V6       0.071700
     28 H4           0.8360     1.4100     2.1170 hc         1 3V6       0.071700
     29 H5           3.4080    -5.4600     1.9440 ho         1 3V6       0.444000
     30 H6           5.6980    -4.9420     2.1880 hc         1 3V6       0.072200
     31 H7           5.8990    -4.0500     0.6700 hc         1 3V6       0.072200
     32 H8           5.9970    -2.9240     3.4890 hc         1 3V6       0.087700
     33 H9           8.0410    -4.0800     2.4730 hc         1 3V6       0.043700
     34 H10          8.2850    -2.3960     2.9550 hc         1 3V6       0.043700
     35 H11          8.0460    -2.8010     1.2500 hc         1 3V6       0.043700
     36 H12          5.9230    -1.5580     0.7760 h1         1 3V6       0.010700
     37 H13          7.4410    -0.4440     1.9220 ho         1 3V6       0.404000
     38 H14          4.2760    -1.0770     3.2780 hc         1 3V6       0.114700
     39 H15          4.2410     0.8080     1.8470 h1         1 3V6       0.130700
     40 H16          3.8950    -0.9410    -0.5520 hn         1 3V6       0.330500
     41 H17          4.6790     0.7470    -2.5270 hx         1 3V6       0.136700
     42 H18          6.7670    -0.7240    -3.1270 hc         1 3V6       0.080367
     43 H19          5.3480    -1.5000    -2.4080 hc         1 3V6       0.080367
     44 H20          6.7570    -1.1280    -1.4040 hc         1 3V6       0.080367
     45 H21          6.5870     1.7900    -3.1940 hn         1 3V6       0.465133
     46 H22          6.3060     2.4670    -1.7330 hn         1 3V6       0.465133
     47 HN3          7.4570     1.3180    -1.8930 hn         1 3V6       0.465133
@<TRIPOS>BOND
     1     3     2 1
     2     2     1 1
     3     2     4 1
     4    23    22 1
     5    22    24 1
     6    22    20 1
     7     6     4 1
     8     6     7 1
     9     8     7 2
    10     4     5 1
    11     4    18 1
    12    20    19 1
    13    20    21 2
    14     7     9 1
    15    19    18 1
    16    18    17 1
    17    11    10 1
    18     9    17 1
    19     9    10 2
    20    17    15 1
    21    10    12 1
    22    15    16 1
    23    15    13 1
    24    12    13 1
    25    13    14 1
    26     2    25 1
    27     5    26 1
    28     5    27 1
    29     5    28 1
    30    11    29 1
    31    12    30 1
    32    12    31 1
    33    13    32 1
    34    14    33 1
    35    14    34 1
    36    14    35 1
    37    15    36 1
    38    16    37 1
    39    17    38 1
    40    18    39 1
    41    19    40 1
    42    22    41 1
    43    23    42 1
    44    23    43 1
    45    23    44 1
    46    24    45 1
    47    24    46 1
    48    47    24 1
@<TRIPOS>SUBSTRUCTURE
     1 3V6         1 TEMP              0 ****  ****    0 ROOT
