@<TRIPOS>MOLECULE
3V7
   22    22     1     0     0
SMALL
bcc


@<TRIPOS>ATOM
      1 C11         0.0170   -0.0810   -0.0450 cc        1 3V7      0.241600
      2 C12         1.4160    0.0470    0.0050 cd        1 3V7     -0.189600
      3 O1          4.9900    2.4670    3.7950 oh        1 3V7     -0.595800
      4 C7          4.7390    1.1860    3.2390 c3        1 3V7      0.133400
      5 C8          3.3370    1.2320    2.6530 c3        1 3V7     -0.108400
      6 C9          3.0540   -0.0830    1.9310 c3        1 3V7      0.056300
      7 N1          1.7280   -0.1690    1.3560 na        1 3V7      0.041400
      8 N2          0.5860   -0.3870    2.0560 nd        1 3V7     -0.165800
      9 N3         -0.4160   -0.3520    1.2790 nc        1 3V7     -0.352000
     10 O8         -0.0980    0.2770   -2.3590 oh        1 3V7     -0.606800
     11 C36        -0.8940    0.0270   -1.2050 c3        1 3V7      0.120100
     12 H13         2.1500    0.2490   -0.7710 h4        1 3V7      0.201000
     13 H6          4.8090    0.3980    4.0360 h1        1 3V7      0.022200
     14 H5          5.4970    0.9630    2.4410 h1        1 3V7      0.022200
     15 H7          2.5940    1.4010    3.4760 hc        1 3V7      0.075200
     16 H8          3.2580    2.1000    1.9480 hc        1 3V7      0.075200
     17 H10         3.7910   -0.2170    1.0890 h1        1 3V7      0.065700
     18 H9          3.1830   -0.9380    2.6570 h1        1 3V7      0.065700
     19 H44        -1.4690   -0.9300   -1.3410 h1        1 3V7      0.043700
     20 H45        -1.6200    0.8740   -1.0520 h1        1 3V7      0.043700
     21 H2         -0.7150    0.3550   -3.0960 ho        1 3V7      0.407000
     22 H1          5.8540    2.4180    4.2200 ho        1 3V7      0.404000
@<TRIPOS>BOND
     1    1    2 2   
     2    1    9 1   
     3    1   11 1   
     4    2    7 1   
     5    2   12 1   
     6    3    4 1   
     7    3   22 1   
     8    4    5 1   
     9    4   13 1   
    10    4   14 1   
    11    5    6 1   
    12    5   15 1   
    13    5   16 1   
    14    6    7 1   
    15    6   17 1   
    16    6   18 1   
    17    7    8 1   
    18    8    9 2   
    19   10   11 1   
    20   10   21 1   
    21   11   19 1   
    22   11   20 1   
@<TRIPOS>SUBSTRUCTURE
     1 3V7         1 TEMP              0 ****  ****    0 ROOT
