@<TRIPOS>MOLECULE
molecule
   22    22     1     0     0
SMALL
bcc


@<TRIPOS>ATOM
      1 C11          0.0000     0.0000     0.0000 cc         1 3V7       0.267600
      2 C12          1.3540     0.0000     0.0000 cd         1 3V7      -0.260600
      3 O1           4.9370     2.2860     4.1490 oh         1 3V7      -0.603800
      4 C7           4.7490     1.1830     3.2610 c3         1 3V7       0.143400
      5 C8           3.3100     1.1830     2.7450 c3         1 3V7      -0.101400
      6 C9           3.1080     0.0010     1.7940 c3         1 3V7       0.060300
      7 N1           1.7300     0.0000     1.3000 na         1 3V7       0.121400
      8 N2           0.6670    -0.0000     2.0270 nd         1 3V7      -0.201800
      9 N3          -0.3800     0.0060     1.2820 nc         1 3V7      -0.361000
     10 O8          -0.1060    -0.0000    -2.3950 oh         1 3V7      -0.618800
     11 C36         -0.9010    -0.0000    -1.2090 c3         1 3V7       0.132100
     12 H13          2.0050    -0.0040    -0.8660 h4         1 3V7       0.194000
     13 H6           4.9040     0.2560     3.8000 h1         1 3V7       0.020200
     14 H5           5.4600     1.2500     2.4460 h1         1 3V7       0.020200
     15 H7           2.6270     1.0940     3.5820 hc         1 3V7       0.077200
     16 H8           3.1150     2.1080     2.2170 hc         1 3V7       0.077200
     17 H10          3.3030    -0.9250     2.3220 h1         1 3V7       0.067200
     18 H9           3.7920     0.0900     0.9580 h1         1 3V7       0.067200
     19 H44         -1.5260    -0.8850    -1.1930 h1         1 3V7       0.041200
     20 H45         -1.5260     0.8840    -1.1930 h1         1 3V7       0.041200
     21 H2          -0.6700    -0.0000    -3.1510 ho         1 3V7       0.411000
     22 H1           5.8250     2.2860     4.4670 ho         1 3V7       0.407000
@<TRIPOS>BOND
     1     1    11 1
     2     1     2 2
     3     1     9 1
     4     2     7 1
     5     3     4 1
     6     4     5 1
     7     5     6 1
     8     6     7 1
     9     7     8 1
    10     8     9 2
    11    10    11 1
    12     2    12 1
    13     4    13 1
    14     4    14 1
    15     5    15 1
    16     5    16 1
    17     6    17 1
    18     6    18 1
    19    11    19 1
    20    11    20 1
    21    10    21 1
    22     3    22 1
@<TRIPOS>SUBSTRUCTURE
     1 3V7         1 TEMP              0 ****  ****    0 ROOT
