@<TRIPOS>MOLECULE
3V8
   30    31     1     0     0
SMALL
bcc


@<TRIPOS>ATOM
      1 C18          0.0000     0.0000     0.0000 c3         1 3V8      -0.019400
      2 C17          1.5430     0.0000     0.0000 c3         1 3V8       0.011500
      3 C16          2.0560     1.2350    -0.6960 c          1 3V8       0.982600
      4 C19         -0.3500    -0.5730     1.3990 c3         1 3V8      -0.114000
      5 C20          0.7810     0.0240     2.2730 c3         1 3V8       0.130800
      6 C11         -5.1500     2.6670     2.4660 c3         1 3V8      -0.133400
      7 C12         -4.0230     2.1940     3.3860 c3         1 3V8      -0.018700
      8 C10         -5.9260     3.7650     3.1460 c          1 3V8       0.984600
      9 O3          -5.6100     4.1320     4.2530 o          1 3V8      -0.916800
     10 O5           2.4320     2.1820    -0.0470 o          1 3V8      -0.886800
     11 N4           1.9800     0.0000     1.4080 n7         1 3V8      -0.529200
     12 N5          -1.6630    -0.1030     1.8460 na         1 3V8       0.612400
     13 C30         -1.9130     1.0670     2.4780 cc         1 3V8      -0.459600
     14 C31         -3.2470     1.0960     2.7050 cd         1 3V8       0.285600
     15 N8          -3.7410    -0.0420     2.2060 nd         1 3V8      -0.338000
     16 N9          -2.7780    -0.7280     1.6990 nc         1 3V8      -0.421800
     17 H21         -0.3810     1.0090    -0.1050 hc         1 3V8       0.037700
     18 H20         -0.3810    -0.6450    -0.7820 hc         1 3V8       0.037700
     19 H19          1.9100    -0.8890    -0.4980 h1         1 3V8       0.009700
     20 H22         -0.3000    -1.6550     1.3940 h1         1 3V8       0.043700
     21 H24          0.5410     1.0430     2.5530 h1         1 3V8       0.021700
     22 H23          0.9400    -0.5880     3.1520 h1         1 3V8       0.021700
     23 H11         -4.7280     3.0430     1.5410 hc         1 3V8       0.016200
     24 H10         -5.8120     1.8370     2.2500 hc         1 3V8       0.016200
     25 H13         -4.4450     1.8180     4.3100 hc         1 3V8       0.022700
     26 H12         -3.3600     3.0240     3.6020 hc         1 3V8       0.022700
     27 H42         -1.1750     1.7120     2.9400 h4         1 3V8       0.168000
     28 OXT          2.0940     1.2830    -2.0360 o          1 3V8      -0.886800
     29 H2           2.5080    -0.8300     1.5940 hn         1 3V8       0.215800
     30 O1          -6.9690     4.3360     2.5230 o          1 3V8      -0.916800
@<TRIPOS>BOND
     1     1     2 1   
     2     1     4 1   
     3     1    17 1   
     4     1    18 1   
     5     2     3 1   
     6     2    11 1   
     7     2    19 1   
     8     3    10 1   
     9     3    28 1   
    10     4     5 1   
    11     4    12 1   
    12     4    20 1   
    13     5    11 1   
    14     5    21 1   
    15     5    22 1   
    16     6     7 1   
    17     6     8 1   
    18     6    23 1   
    19     6    24 1   
    20     7    14 1   
    21     7    25 1   
    22     7    26 1   
    23     8     9 1   
    24     8    30 1   
    25    11    29 1   
    26    12    13 1   
    27    12    16 1   
    28    13    14 2   
    29    13    27 1   
    30    14    15 1   
    31    15    16 2   
@<TRIPOS>SUBSTRUCTURE
     1 3V8         1 TEMP              0 ****  ****    0 ROOT
