@<TRIPOS>MOLECULE
molecule
   52    53     1     0     0
SMALL
bcc


@<TRIPOS>ATOM
      1 O1           0.0000     0.0000     0.0000 o          1 3V9      -0.909833
      2 O2           2.1040    -1.2080    -0.6980 o          1 3V9      -0.909833
      3 O3           2.1470     1.3160    -0.7580 o          1 3V9      -0.909833
      4 P            1.6100     0.0000     0.0000 p5         1 3V9       1.179900
      5 O01          2.1460     0.0000     1.5190 os         1 3V9      -0.584200
      6 C02          3.5310    -0.1050     1.8550 c3         1 3V9       0.229400
      7 C03          3.6900    -0.0740     3.3760 c3         1 3V9      -0.069000
      8 C04          3.1300     1.2410     3.9210 c3         1 3V9      -0.066600
      9 C25          2.9260    -1.2470     3.9920 c3         1 3V9      -0.066600
     10 C05          5.1730    -0.1850     3.7360 c3         1 3V9       0.088100
     11 O24          5.6630    -1.4700     3.3460 oh         1 3V9      -0.551800
     12 C06          5.9470     0.8880     3.0160 c          1 3V9       0.644100
     13 O23          6.7270     0.5860     2.1370 o          1 3V9      -0.589100
     14 N07          5.7730     2.1830     3.3480 ns         1 3V9      -0.599900
     15 C08          6.4520     3.2320     2.5830 c3         1 3V9       0.129000
     16 C09          6.0870     4.6010     3.1620 c3         1 3V9      -0.174400
     17 C10          6.7850     5.6810     2.3760 c          1 3V9       0.663100
     18 O22          7.5030     5.3850     1.4450 o          1 3V9      -0.593100
     19 N11          6.6100     6.9760     2.7080 ns         1 3V9      -0.597900
     20 C12          7.2890     8.0250     1.9440 c3         1 3V9       0.165300
     21 C13          6.9300     9.3730     2.5140 ca         1 3V9      -0.104300
     22 C21          7.7030     9.9250     3.5180 ca         1 3V9      -0.101000
     23 C17          7.3740    11.1650     4.0430 ca         1 3V9       0.037100
     24 O18          7.9600    11.9180     5.0200 os         1 3V9      -0.331900
     25 C19          6.9650    12.8830     5.4090 c3         1 3V9       0.331200
     26 O20          6.1560    13.0350     4.2290 os         1 3V9      -0.331900
     27 C16          6.2650    11.8520     3.5570 ca         1 3V9       0.045100
     28 C15          5.4950    11.2930     2.5510 ca         1 3V9      -0.116000
     29 C14          5.8310    10.0570     2.0280 ca         1 3V9      -0.103000
     30 H3           3.9270    -1.0370     1.4700 h1         1 3V9       0.030200
     31 H4           4.0720     0.7250     1.4180 h1         1 3V9       0.030200
     32 H5           2.0650     1.1370     4.0930 hc         1 3V9       0.028200
     33 H6           3.3040     2.0340     3.2030 hc         1 3V9       0.028200
     34 H7           3.6240     1.4850     4.8550 hc         1 3V9       0.028200
     35 H8           3.1700    -2.1580     3.4590 hc         1 3V9       0.028200
     36 H9           1.8610    -1.0620     3.9210 hc         1 3V9       0.028200
     37 H10          3.2050    -1.3530     5.0340 hc         1 3V9       0.028200
     38 H11          5.2950    -0.0620     4.8050 h1         1 3V9       0.006700
     39 H12          6.3570    -1.7310     3.9280 ho         1 3V9       0.373000
     40 H13          5.2370     2.4230     4.1580 hn         1 3V9       0.306500
     41 H14          7.5240     3.0870     2.6450 h1         1 3V9       0.071700
     42 H15          6.1390     3.1830     1.5470 h1         1 3V9       0.071700
     43 H16          5.0150     4.7450     3.1010 hc         1 3V9       0.061700
     44 H17          6.3990     4.6490     4.1990 hc         1 3V9       0.061700
     45 H18          6.0480     7.2180     3.5010 hn         1 3V9       0.313500
     46 H19          6.9770     7.9760     0.9080 h1         1 3V9       0.060700
     47 H20          8.3610     7.8810     2.0060 h1         1 3V9       0.060700
     48 H21          8.5880     9.4070     3.8660 ha         1 3V9       0.147000
     49 H22          7.4420    13.8250     5.6510 h2         1 3V9       0.065700
     50 H23          6.3640    12.4860     6.2190 h2         1 3V9       0.065700
     51 H24          4.6330    11.8260     2.1680 ha         1 3V9       0.145000
     52 H25          5.2360     9.6280     1.2310 ha         1 3V9       0.157000
@<TRIPOS>BOND
     1     2     4 1
     2     3     4 1
     3     4     1 1
     4     4     5 1
     5    11    10 1
     6     5     6 1
     7    10    12 1
     8    10     7 1
     9    13    12 2
    10    12    14 1
    11    14    15 1
    12    15    16 1
    13     6     7 1
    14     7     8 1
    15     7     9 1
    16    18    17 2
    17    17    16 1
    18    17    19 1
    19    20    19 1
    20    20    21 1
    21    29    21 ar
    22    29    28 ar
    23    21    22 ar
    24    28    27 ar
    25    22    23 ar
    26    27    23 ar
    27    27    26 1
    28    23    24 1
    29    26    25 1
    30    24    25 1
    31     6    30 1
    32     6    31 1
    33     8    32 1
    34     8    33 1
    35     8    34 1
    36     9    35 1
    37     9    36 1
    38     9    37 1
    39    10    38 1
    40    11    39 1
    41    14    40 1
    42    15    41 1
    43    15    42 1
    44    16    43 1
    45    16    44 1
    46    19    45 1
    47    20    46 1
    48    20    47 1
    49    22    48 1
    50    25    49 1
    51    25    50 1
    52    28    51 1
    53    29    52 1
@<TRIPOS>SUBSTRUCTURE
     1 3V9         1 TEMP              0 ****  ****    0 ROOT
