@<TRIPOS>MOLECULE
molecule
   18    17     1     0     0
SMALL
bcc


@<TRIPOS>ATOM
      1 O6           0.0000     0.0000     0.0000 oh         1 3VB      -0.617800
      2 C11          1.4290     0.0000     0.0000 c3         1 3VB       0.118400
      3 C13          1.9390     0.0000     1.4420 c3         1 3VB       0.154100
      4 O7           1.5610    -1.2200     2.0820 oh         1 3VB      -0.586800
      5 C14          3.4650     0.1260     1.4430 c3         1 3VB       0.154100
      6 O8           4.0290    -0.9130     0.6400 oh         1 3VB      -0.586800
      7 C15          3.9850     0.0020     2.8770 c3         1 3VB       0.118400
      8 OAA          5.3950     0.2350     2.8940 oh         1 3VB      -0.617800
      9 H1          -0.3140     0.1110    -0.8820 ho         1 3VB       0.406000
     10 H2           1.7900    -0.8840    -0.5110 h1         1 3VB       0.037700
     11 H3           1.7900     0.8840    -0.5110 h1         1 3VB       0.037700
     12 H4           1.5080     0.8370     1.9780 h1         1 3VB       0.043200
     13 H5           0.7700    -1.0840     2.5770 ho         1 3VB       0.407000
     14 H6           3.7480     1.0900     1.0380 h1         1 3VB       0.043200
     15 H7           4.7810    -0.5800     0.1790 ho         1 3VB       0.407000
     16 H8           3.7790    -0.9930     3.2510 h1         1 3VB       0.037700
     17 H9           3.4910     0.7340     3.5050 h1         1 3VB       0.037700
     18 H10          5.6970     0.2690     3.7860 ho         1 3VB       0.406000
@<TRIPOS>BOND
     1     8     7 1   
     2     7     5 1   
     3     6     5 1   
     4     5     3 1   
     5     3     2 1   
     6     3     4 1   
     7     1     2 1   
     8     1     9 1   
     9     2    10 1   
    10     2    11 1   
    11     3    12 1   
    12     4    13 1   
    13     5    14 1   
    14     6    15 1   
    15     7    16 1   
    16     7    17 1   
    17     8    18 1   
@<TRIPOS>SUBSTRUCTURE
     1 3VB         1 TEMP              0 ****  ****    0 ROOT
