@<TRIPOS>MOLECULE
3VB
   18    17     1     0     0
SMALL
bcc


@<TRIPOS>ATOM
      1 O6         -0.0240   -0.0730    0.1450 oh        1 3VB     -0.618800
      2 C11         1.3880    0.0230    0.0290 c3        1 3VB      0.095400
      3 C13         1.9270    0.1270    1.4580 c3        1 3VB      0.148100
      4 O7          1.5740   -1.0100    2.2280 oh        1 3VB     -0.602800
      5 C14         3.4590    0.2460    1.4420 c3        1 3VB      0.148100
      6 O8          3.9740   -0.7140    0.5340 oh        1 3VB     -0.602800
      7 C15         4.0220    0.0400    2.8510 c3        1 3VB      0.095400
      8 OAA         5.4310    0.1770    2.7370 oh        1 3VB     -0.618800
      9 H1         -0.3590   -0.3110   -0.7270 ho        1 3VB      0.410000
     10 H2          1.8080   -0.8890   -0.4730 h1        1 3VB      0.049200
     11 H3          1.6640    0.9390   -0.5550 h1        1 3VB      0.049200
     12 H4          1.5010    1.0440    1.9580 h1        1 3VB      0.047700
     13 H5          0.6470   -1.2030    2.0290 ho        1 3VB      0.422000
     14 H6          3.7360    1.2740    1.0710 h1        1 3VB      0.047700
     15 H7          4.9220   -0.7860    0.7150 ho        1 3VB      0.422000
     16 H8          3.6150    0.8180    3.5470 h1        1 3VB      0.049200
     17 H9          3.7520   -0.9830    3.2250 h1        1 3VB      0.049200
     18 H10         5.8070   -0.1190    3.5740 ho        1 3VB      0.410000
@<TRIPOS>BOND
     1    1    2 1   
     2    1    9 1   
     3    2    3 1   
     4    2   10 1   
     5    2   11 1   
     6    3    4 1   
     7    3    5 1   
     8    3   12 1   
     9    4   13 1   
    10    5    6 1   
    11    5    7 1   
    12    5   14 1   
    13    6   15 1   
    14    7    8 1   
    15    7   16 1   
    16    7   17 1   
    17    8   18 1   
@<TRIPOS>SUBSTRUCTURE
     1 3VB         1 TEMP              0 ****  ****    0 ROOT
