@<TRIPOS>MOLECULE
3VC
   45    49     1     0     0
SMALL
bcc


@<TRIPOS>ATOM
      1 C19          0.0000     0.0000     0.0000 ca         1 3VC      -0.246200
      2 N5           1.3550     0.0000     0.0000 nc         1 3VC      -0.492100
      3 C21          1.7870     0.0000     1.2280 cd         1 3VC       0.214700
      4 N6           0.7330     0.0000     2.0930 na         1 3VC       0.178000
      5 C20         -0.4140     0.0010     1.3420 ca         1 3VC       0.251800
      6 N4          -1.7150     0.0010     1.6170 nb         1 3VC      -0.688000
      7 C17         -2.6060     0.0010     0.6470 ca         1 3VC       0.693900
      8 N3          -2.2630    -0.0010    -0.6300 nb         1 3VC      -0.742000
      9 C18         -0.9870    -0.0050    -1.0000 ca         1 3VC       0.615200
     10 N7          -0.6390    -0.0060    -2.3390 nu         1 3VC      -0.475900
     11 C10         -1.6830    -0.0010    -3.3670 c3         1 3VC       0.134800
     12 C11         -2.1920     1.4270    -3.5720 c3         1 3VC      -0.009100
     13 C1          -1.1150    -0.5230    -4.6620 ca         1 3VC      -0.168600
     14 C5           0.2340    -0.5360    -4.8600 ca         1 3VC      -0.076000
     15 C4           0.7240    -1.0320    -6.0840 ca         1 3VC      -0.149300
     16 C9           2.1010    -1.0760    -6.3530 ca         1 3VC      -0.055000
     17 C8           2.5400    -1.5620    -7.5460 ca         1 3VC      -0.125000
     18 C7           1.6390    -2.0180    -8.5080 ca         1 3VC       0.112900
     19 F1           2.1050    -2.4940    -9.6840 f          1 3VC      -0.127900
     20 C6           0.2950    -1.9900    -8.2810 ca         1 3VC      -0.178300
     21 C3          -0.1950    -1.4960    -7.0590 ca         1 3VC       0.387600
     22 N1          -1.5070    -1.4580    -6.8100 nb         1 3VC      -0.552000
     23 C2          -1.9740    -1.0000    -5.6640 cp         1 3VC       0.349300
     24 C12         -3.4380    -0.9780    -5.4360 cp         1 3VC       0.306300
     25 C13         -4.3060    -0.8880    -6.5220 ca         1 3VC      -0.177300
     26 C14         -5.6720    -0.8690    -6.2920 ca         1 3VC      -0.073000
     27 C15         -6.1240    -0.9400    -4.9830 ca         1 3VC      -0.211300
     28 C16         -5.2060    -1.0280    -3.9520 ca         1 3VC       0.398200
     29 N2          -3.9120    -1.0490    -4.1980 nb         1 3VC      -0.556000
     30 H2           2.8310    -0.0000     1.5200 h5         1 3VC       0.030800
     31 H4          -3.6580     0.0040     0.9050 h5         1 3VC      -0.006900
     32 H5           0.3250    -0.0230    -2.6060 hn         1 3VC       0.312800
     33 H6          -2.5040    -0.6340    -3.0510 h1         1 3VC       0.126700
     34 H7          -2.3410     1.6090    -4.6290 hc         1 3VC       0.012033
     35 H8          -3.1310     1.5550    -3.0470 hc         1 3VC       0.012033
     36 H9          -1.4630     2.1290    -3.1840 hc         1 3VC       0.012033
     37 H10          0.8830     0.0380    -4.2100 ha         1 3VC       0.124000
     38 H11          2.8110    -0.7250    -5.6140 ha         1 3VC       0.113000
     39 H12          3.6030    -1.5970    -7.7500 ha         1 3VC       0.120000
     40 H13         -0.3930    -2.3480    -9.0380 ha         1 3VC       0.134000
     41 H14         -3.9180    -0.8340    -7.5320 ha         1 3VC       0.130000
     42 H15         -6.3710    -0.8000    -7.1170 ha         1 3VC       0.111000
     43 H16         -7.1860    -0.9260    -4.7690 ha         1 3VC       0.114000
     44 H17         -5.5560    -1.0860    -2.9290 h4         1 3VC      -0.013900
     45 H161         0.7870     0.0000     3.0920 hn         1 3VC       0.132700
@<TRIPOS>BOND
     1     1     2 1   
     2     1     5 ar  
     3     1     9 ar  
     4     2     3 2   
     5     3     4 1   
     6     3    30 1   
     7     4     5 1   
     8     4    45 1   
     9     5     6 ar  
    10     6     7 ar  
    11     7     8 ar  
    12     7    31 1   
    13     8     9 ar  
    14     9    10 1   
    15    10    11 1   
    16    10    32 1   
    17    11    12 1   
    18    11    13 1   
    19    11    33 1   
    20    12    34 1   
    21    12    35 1   
    22    12    36 1   
    23    13    14 ar  
    24    13    23 ar  
    25    14    15 ar  
    26    14    37 1   
    27    15    16 ar  
    28    15    21 ar  
    29    16    17 ar  
    30    16    38 1   
    31    17    18 ar  
    32    17    39 1   
    33    18    19 1   
    34    18    20 ar  
    35    20    21 ar  
    36    20    40 1   
    37    21    22 ar  
    38    22    23 ar  
    39    23    24 1   
    40    24    25 ar  
    41    24    29 ar  
    42    25    26 ar  
    43    25    41 1   
    44    26    27 ar  
    45    26    42 1   
    46    27    28 ar  
    47    27    43 1   
    48    28    29 ar  
    49    28    44 1   
@<TRIPOS>SUBSTRUCTURE
     1 3VC         1 TEMP              0 ****  ****    0 ROOT
