@<TRIPOS>MOLECULE
molecule
   46    50     1     0     0
SMALL
bcc


@<TRIPOS>ATOM
      1 C18          0.0000     0.0000     0.0000 ca         1 3VD      -0.213200
      2 N21          1.3550     0.0000     0.0000 nc         1 3VD      -0.585100
      3 C22          1.7880     0.0000     1.2270 cd         1 3VD       0.410700
      4 N23          0.7350     0.0010     2.0920 na         1 3VD      -0.358000
      5 C19         -0.4130     0.0020     1.3420 ca         1 3VD       0.472800
      6 N20         -1.7150     0.0030     1.6170 nb         1 3VD      -0.796000
      7 C15         -2.6050     0.0020     0.6490 ca         1 3VD       0.745900
      8 N16         -2.2640     0.0010    -0.6270 nb         1 3VD      -0.835000
      9 C17         -0.9880    -0.0040    -0.9990 ca         1 3VD       0.789200
     10 N13         -0.6410    -0.0060    -2.3390 nu         1 3VD      -0.890900
     11 C12         -1.6850    -0.0010    -3.3660 c3         1 3VD       0.273800
     12 C30         -2.0940     1.4420    -3.6710 c3         1 3VD      -0.104100
     13 C7          -1.1600    -0.6510    -4.6190 ca         1 3VD      -0.197600
     14 C6           0.1440    -0.4830    -4.9810 ca         1 3VD      -0.083000
     15 C5           0.5950    -1.1080    -6.1600 ca         1 3VD      -0.142300
     16 C11          1.9260    -0.9770    -6.5900 ca         1 3VD      -0.110000
     17 C10          2.3280    -1.5960    -7.7350 ca         1 3VD      -0.117000
     18 C9           1.4380    -2.3570    -8.4870 ca         1 3VD      -0.114000
     19 C8           0.1400    -2.5060    -8.1020 ca         1 3VD      -0.008900
     20 Cl1         -0.9510    -3.4600    -9.0580 cl         1 3VD      -0.077400
     21 C4          -0.3140    -1.8830    -6.9240 ca         1 3VD       0.419600
     22 N3          -1.5800    -2.0120    -6.5210 nb         1 3VD      -0.652000
     23 C2          -2.0100    -1.4350    -5.4150 cp         1 3VD       0.499800
     24 C1          -3.4260    -1.6080    -5.0110 cp         1 3VD      -0.126500
     25 C24         -3.7350    -2.1090    -3.7470 ca         1 3VD      -0.151000
     26 C25         -5.0570    -2.2680    -3.3750 ca         1 3VD       0.134900
     27 F1          -5.3600    -2.7530    -2.1520 f          1 3VD      -0.136900
     28 C26         -6.0720    -1.9310    -4.2570 ca         1 3VD      -0.159000
     29 C27         -5.7680    -1.4340    -5.5110 ca         1 3VD      -0.108000
     30 C28         -4.4520    -1.2650    -5.8900 ca         1 3VD      -0.107000
     31 H2           2.8320    -0.0010     1.5180 h5         1 3VD       0.078800
     32 H4          -3.6570     0.0060     0.9070 h5         1 3VD       0.063100
     33 H5           0.3230    -0.0080    -2.6060 hn         1 3VD       0.462800
     34 H6          -2.5470    -0.5520    -3.0080 h1         1 3VD       0.105700
     35 H7          -1.3740     2.1220    -3.2320 hc         1 3VD       0.047033
     36 H8          -2.1230     1.5900    -4.7440 hc         1 3VD       0.047033
     37 H9          -3.0740     1.6360    -3.2540 hc         1 3VD       0.047033
     38 H10          0.7380     0.2970    -4.5200 ha         1 3VD       0.146000
     39 H11          2.6290    -0.3880    -6.0140 ha         1 3VD       0.139000
     40 H12          3.3550    -1.4940    -8.0640 ha         1 3VD       0.139000
     41 H13          1.7830    -2.8390    -9.3940 ha         1 3VD       0.148000
     42 H14         -2.9440    -2.4640    -3.0980 ha         1 3VD       0.157000
     43 H15         -7.1070    -2.0590    -3.9630 ha         1 3VD       0.146000
     44 H16         -6.5650    -1.1700    -6.1950 ha         1 3VD       0.139000
     45 H17         -4.2160    -0.8760    -6.8730 ha         1 3VD       0.147000
     46 H1           0.7890     0.0010     3.0920 hn         1 3VD       0.314700
@<TRIPOS>BOND
     1    18    17 ar  
     2    18    19 ar  
     3    20    19 1   
     4    17    16 ar  
     5    19    21 ar  
     6    16    15 ar  
     7    21    15 ar  
     8    21    22 ar  
     9    15    14 ar  
    10    22    23 ar  
    11    14    13 ar  
    12    23    13 ar  
    13    23    24 1   
    14    13    11 1   
    15    24    30 ar  
    16    24    25 ar  
    17    30    29 ar  
    18    25    26 ar  
    19    29    28 ar  
    20    12    11 1   
    21    11    10 1   
    22    26    28 ar  
    23    26    27 1   
    24    10     9 1   
    25     9     8 ar  
    26     9     1 ar  
    27     8     7 ar  
    28     1     2 1   
    29     1     5 ar  
    30     7     6 ar  
    31     2     3 2   
    32     5     6 ar  
    33     5     4 1   
    34     3     4 1   
    35     3    31 1   
    36     7    32 1   
    37    10    33 1   
    38    11    34 1   
    39    12    35 1   
    40    12    36 1   
    41    12    37 1   
    42    14    38 1   
    43    16    39 1   
    44    17    40 1   
    45    18    41 1   
    46    25    42 1   
    47    28    43 1   
    48    29    44 1   
    49    30    45 1   
    50     4    46 1   
@<TRIPOS>SUBSTRUCTURE
     1 3VD         1 TEMP              0 ****  ****    0 ROOT
