@<TRIPOS>MOLECULE
molecule
   48    52     1     0     0
SMALL
bcc


@<TRIPOS>ATOM
      1 C30          0.0000     0.0000     0.0000 c3         1 3VE      -0.141400
      2 C29          1.5070     0.0000     0.0000 ca         1 3VE       0.469600
      3 N28          2.1590     0.0000     1.1450 nb         1 3VE      -0.695000
      4 C27          3.4770    -0.0000     1.1950 ca         1 3VE       0.434200
      5 C26          4.2350    -0.0010     0.0380 ca         1 3VE      -0.261300
      6 C25          3.5960    -0.0020    -1.1900 ca         1 3VE      -0.066000
      7 C11          2.1980    -0.0080    -1.2100 cp         1 3VE      -0.275800
      8 C2           1.4640    -0.0090    -2.4980 cp         1 3VE       0.515800
      9 N3           0.6080     0.9620    -2.7530 nb         1 3VE      -0.660000
     10 C6          -0.0720     1.0030    -3.9030 ca         1 3VE       0.425600
     11 C7          -0.9820     2.0430    -4.1680 ca         1 3VE      -0.012900
     12 Cl1         -1.2370     3.2990    -2.9980 cl         1 3VE      -0.076400
     13 C8          -1.6610     2.0600    -5.3490 ca         1 3VE      -0.112000
     14 C9          -1.4700     1.0630    -6.3020 ca         1 3VE      -0.121000
     15 C10         -0.5970     0.0400    -6.0790 ca         1 3VE      -0.108000
     16 C5           0.1210    -0.0100    -4.8740 ca         1 3VE      -0.152300
     17 C4           1.0320    -1.0520    -4.6100 ca         1 3VE      -0.068000
     18 C1           1.6970    -1.0420    -3.4200 ca         1 3VE      -0.219600
     19 C13          2.6860    -2.1320    -3.0980 c3         1 3VE       0.284800
     20 C15          3.0300    -2.9020    -4.3750 c3         1 3VE      -0.115100
     21 N14          2.0990    -3.0490    -2.1180 nu         1 3VE      -0.880900
     22 C16          2.9190    -3.7730    -1.2700 ca         1 3VE       0.790200
     23 C21          2.3730    -4.6630    -0.3270 ca         1 3VE      -0.209200
     24 N22          1.1170    -5.0400     0.0090 nc         1 3VE      -0.581100
     25 C23          1.1710    -5.9140     0.9720 cd         1 3VE       0.411700
     26 N24          2.4700    -6.1500     1.3140 na         1 3VE      -0.358000
     27 C20          3.2560    -5.3700     0.5040 ca         1 3VE       0.471800
     28 N17          4.5650    -5.1750     0.3730 nb         1 3VE      -0.796000
     29 C18          5.0310    -4.3320    -0.5240 ca         1 3VE       0.741900
     30 N19          4.2410    -3.6480    -1.3310 nb         1 3VE      -0.841000
     31 H1          -0.3610     0.9900    -0.2490 hc         1 3VE       0.057367
     32 H2          -0.3610    -0.2790     0.9820 hc         1 3VE       0.057367
     33 H3          -0.3610    -0.7110    -0.7330 hc         1 3VE       0.057367
     34 H4           3.9730     0.0000     2.1570 h4         1 3VE       0.022100
     35 H5           5.3170     0.0010     0.0930 ha         1 3VE       0.140000
     36 H6           4.1640    -0.0050    -2.1120 ha         1 3VE       0.141000
     37 H7          -2.3610     2.8630    -5.5500 ha         1 3VE       0.148000
     38 H8          -2.0230     1.1000    -7.2330 ha         1 3VE       0.139000
     39 H9          -0.4570    -0.7290    -6.8280 ha         1 3VE       0.137000
     40 H10          1.2000    -1.8410    -5.3330 ha         1 3VE       0.152000
     41 H11          3.5870    -1.6930    -2.6880 h1         1 3VE       0.096700
     42 H12          2.1680    -3.4740    -4.6950 hc         1 3VE       0.046033
     43 H13          3.8570    -3.5740    -4.1790 hc         1 3VE       0.046033
     44 H14          3.3090    -2.2030    -5.1540 hc         1 3VE       0.046033
     45 H15          1.1080    -3.1880    -2.0940 hn         1 3VE       0.466800
     46 H17          0.3120    -6.3840     1.4340 h5         1 3VE       0.079800
     47 H18          2.7900    -6.7780     2.0240 hn         1 3VE       0.313700
     48 H19          6.1030    -4.1990    -0.6080 h5         1 3VE       0.060100
@<TRIPOS>BOND
     1    13    14 ar
     2    13    11 ar
     3    12    11 1
     4    14    15 ar
     5    11    10 ar
     6    15    16 ar
     7    10    16 ar
     8    10     9 ar
     9    16    17 ar
    10     9     8 ar
    11    17    18 ar
    12     8    18 ar
    13     8     7 1
    14    18    19 1
    15     6     7 ar
    16     6     5 ar
    17     7     2 ar
    18     5     4 ar
    19     2     1 1
    20     2     3 ar
    21    20    19 1
    22    19    21 1
    23    21    22 1
    24     4     3 ar
    25    22    30 ar
    26    22    23 ar
    27    30    29 ar
    28    29    28 ar
    29    23    24 1
    30    23    27 ar
    31    24    25 2
    32    28    27 ar
    33    27    26 1
    34    25    26 1
    35     1    31 1
    36     1    32 1
    37     1    33 1
    38     4    34 1
    39     5    35 1
    40     6    36 1
    41    13    37 1
    42    14    38 1
    43    15    39 1
    44    17    40 1
    45    19    41 1
    46    20    42 1
    47    20    43 1
    48    20    44 1
    49    21    45 1
    50    25    46 1
    51    26    47 1
    52    29    48 1
@<TRIPOS>SUBSTRUCTURE
     1 3VE         1 TEMP              0 ****  ****    0 ROOT
