@<TRIPOS>MOLECULE
molecule
   53    55     1     0     0
SMALL
bcc


@<TRIPOS>ATOM
      1 C1           0.0000     0.0000     0.0000 ca         1 3VF       0.464600
      2 C2           1.3890     0.0000     0.0000 ca         1 3VF      -0.355600
      3 C3           2.0510     0.0000     1.2190 ca         1 3VF       0.462200
      4 C11         -2.8320    -5.6100    -3.8340 ca         1 3VF       0.173100
      5 C12         -3.2170    -4.5500    -4.6740 ca         1 3VF      -0.228600
      6 C13         -2.8800    -3.2390    -4.3330 ca         1 3VF      -0.002000
      7 C14         -2.1680    -2.9920    -3.1630 ca         1 3VF      -0.190600
      8 C15         -1.7910    -4.0560    -2.3340 ca         1 3VF      -0.035000
      9 C16         -2.1210    -5.3490    -2.6690 ca         1 3VF      -0.194000
     10 C18         -4.0530    -3.5600    -6.8780 c3         1 3VF      -0.119700
     11 C20         -4.8780    -2.1680    -5.8910 ca         1 3VF      -0.148300
     12 C22         -1.8080    -1.6080    -2.7960 c          1 3VF       0.654700
     13 C23         -5.2520    -0.8900    -6.2100 ca         1 3VF      -0.144000
     14 C24         -5.6180    -0.3150    -5.7200 ca         1 3VF       0.180400
     15 C25         -6.0370    -0.4360    -4.2420 ca         1 3VF      -0.189000
     16 C26         -5.7280    -1.6900    -3.7440 ca         1 3VF       0.180400
     17 C27         -5.2540    -2.4580    -4.3470 ca         1 3VF      -0.144000
     18 C30         -2.5400    -7.8220    -3.7830 c3         1 3VF       0.123700
     19 N4           1.3460    -0.0010     2.3360 nb         1 3VF      -0.703000
     20 C5           0.0200    -0.0000     2.3010 ca         1 3VF       0.781000
     21 N6          -0.6430    -0.0010     1.1530 nb         1 3VF      -0.702000
     22 C7          -0.7620     0.0060    -1.3000 c3         1 3VF      -0.098300
     23 N8          -1.1190    -1.3670    -1.6640 ns         1 3VF      -0.510900
     24 C9          -0.7110    -0.0000     3.5320 cg         1 3VF       0.157800
     25 N10         -1.2910    -0.0200     4.5090 n1         1 3VF      -0.311800
     26 O19         -4.3430    -5.5570    -6.4980 o          1 3VF      -0.414100
     27 O21         -3.2080    -6.8990    -4.3500 os         1 3VF      -0.277900
     28 Cl1         -5.9500     1.3920    -6.3070 cl         1 3VF      -0.250400
     29 Cl2         -6.0330    -2.1670    -1.8470 cl         1 3VF      -0.250400
     30 C31         -3.2080    -2.5630    -7.6140 c3         1 3VF      -0.074100
     31 C32         -5.3070    -4.0780    -7.5820 c3         1 3VF      -0.074100
     32 O33         -2.1350    -0.6840    -3.5160 o          1 3VF      -0.587100
     33 H1           1.9310     0.0000    -0.9380 ha         1 3VF       0.157000
     34 H2           3.1340     0.0000     1.2470 h4         1 3VF       0.042100
     35 H3          -3.1740    -2.4190    -4.9770 ha         1 3VF       0.191000
     36 H4          -1.2360    -3.8630    -1.4230 ha         1 3VF       0.142000
     37 H5          -1.8250    -6.1640    -2.0210 ha         1 3VF       0.152000
     38 H6          -4.7490    -0.4850    -7.0800 ha         1 3VF       0.162500
     39 H7          -6.5590     0.3380    -3.6930 ha         1 3VF       0.178000
     40 H8          -4.8450    -3.3250    -3.8420 ha         1 3VF       0.162500
     41 H9          -1.4830    -7.5920    -3.8450 h1         1 3VF       0.027367
     42 H10         -2.7330    -8.7650    -4.2790 h1         1 3VF       0.027367
     43 H11         -2.8330    -7.8940    -2.7430 h1         1 3VF       0.027367
     44 H12         -0.1580    -0.4500    -2.0750 h1         1 3VF       0.136200
     45 H13         -0.9950     1.0270    -1.5780 h1         1 3VF       0.136200
     46 H14         -1.2800    -1.9280    -0.8510 hn         1 3VF       0.290500
     47 H17         -2.2290    -2.9880    -7.8010 hc         1 3VF       0.051533
     48 H18         -3.6800    -2.3150    -8.5570 hc         1 3VF       0.051533
     49 H19         -3.1040    -1.6660    -7.0160 hc         1 3VF       0.051533
     50 H20         -6.0100    -4.4450    -6.8440 hc         1 3VF       0.051533
     51 H21         -5.0370    -4.8820    -8.2550 hc         1 3VF       0.051533
     52 H22         -5.7630    -3.2730    -8.1460 hc         1 3VF       0.051533
     53 C17         -3.9060    -4.7490    -5.9410 c          1 3VF       0.683700
@<TRIPOS>BOND
     1    29    16 1
     2    16    17 ar
     3    16    15 ar
     4    17    11 ar
     5    31    10 1
     6    15    14 ar
     7    26    53 2
     8    11    10 1
     9    11    13 ar
    10    10    53 1
    11    10    30 1
    12    14    13 ar
    13    14    28 1
    14    53     5 1
    15    27    18 1
    16    27     4 1
    17     5     4 ar
    18     5     6 ar
    19     4     9 ar
    20     6     7 ar
    21     9     8 ar
    22     7     8 ar
    23     7    12 1
    24    32    12 2
    25    12    23 1
    26    23    22 1
    27    22     1 1
    28     1    21 ar
    29     1     2 ar
    30    21    20 ar
    31     2     3 ar
    32    20    24 1
    33    20    19 ar
    34    24    25 3
    35     3    19 ar
    36     2    33 1
    37     3    34 1
    38     6    35 1
    39     8    36 1
    40     9    37 1
    41    13    38 1
    42    15    39 1
    43    17    40 1
    44    18    41 1
    45    18    42 1
    46    18    43 1
    47    22    44 1
    48    22    45 1
    49    23    46 1
    50    30    47 1
    51    30    48 1
    52    30    49 1
    53    31    50 1
    54    31    51 1
    55    31    52 1
@<TRIPOS>SUBSTRUCTURE
     1 3VF         1 TEMP              0 ****  ****    0 ROOT
