@<TRIPOS>MOLECULE
3VF
   54    56     1     0     0
SMALL
bcc


@<TRIPOS>ATOM
      1 C1         -0.9850    0.2880   -1.6150 ca        1 3VF      0.383600
      2 C2         -0.7090    1.6200   -1.9710 ca        1 3VF     -0.318600
      3 C3         -0.2350    2.4650   -0.9410 ca        1 3VF      0.461200
      4 C11        -2.5990   -7.1140   -2.5890 ca        1 3VF      0.247100
      5 C12        -2.7420   -6.5920   -3.9000 ca        1 3VF     -0.190600
      6 C13        -2.6300   -5.2240   -4.1000 ca        1 3VF      0.021000
      7 C14        -2.3690   -4.3520   -3.0200 ca        1 3VF     -0.264600
      8 C15        -2.2310   -4.8810   -1.7240 ca        1 3VF     -0.034000
      9 C16        -2.3460   -6.2430   -1.5070 ca        1 3VF     -0.215000
     10 C18        -4.3660   -7.6210   -5.6120 c3        1 3VF     -0.082700
     11 C20        -4.6830   -6.3820   -6.4090 ca        1 3VF     -0.071300
     12 C22        -2.2650   -2.9410   -3.3480 c         1 3VF      0.583700
     13 C23        -5.8940   -5.7020   -6.2600 ca        1 3VF     -0.133500
     14 C24        -6.1590   -4.5740   -7.0460 ca        1 3VF      0.024400
     15 C25        -5.2340   -4.1170   -7.9870 ca        1 3VF     -0.117000
     16 C26        -4.0260   -4.8070   -8.1310 ca        1 3VF      0.024400
     17 C27        -3.7480   -5.9330   -7.3540 ca        1 3VF     -0.133500
     18 C30        -2.5150   -9.0380   -1.1770 c3        1 3VF      0.102700
     19 N4         -0.0500    2.0420    0.3210 nb        1 3VF     -0.620000
     20 C5         -0.3490    0.7230    0.5680 ca        1 3VF      0.784000
     21 N6         -0.8120   -0.1780   -0.3520 nb        1 3VF     -0.725000
     22 C7         -1.4940   -0.6370   -2.6950 c3        1 3VF      0.063500
     23 N8         -1.7480   -2.0310   -2.2370 n4        1 3VF     -0.668800
     24 C9         -0.1620    0.2370    1.9120 cg        1 3VF      0.116800
     25 N10        -0.0100   -0.1510    2.9950 n1        1 3VF     -0.259800
     26 O19        -1.9890   -8.1060   -5.5520 o         1 3VF     -0.474100
     27 CL1        -7.6320   -3.7530   -6.8540 cl        1 3VF     -0.065900
     28 CL2        -2.8870   -4.2710   -9.2680 cl        1 3VF     -0.065900
     29 C31        -5.3170   -7.8390   -4.4440 c3        1 3VF     -0.090100
     30 C32        -4.4440   -8.8360   -6.5380 c3        1 3VF     -0.090100
     31 O33        -2.5230   -2.3770   -4.4040 o         1 3VF     -0.439100
     32 H1         -0.8500    1.9940   -2.9940 ha        1 3VF      0.180000
     33 H2          0.0070    3.5290   -1.1370 h4        1 3VF      0.069100
     34 H3         -2.7470   -4.8130   -5.1220 ha        1 3VF      0.182000
     35 H4         -2.0420   -4.2380   -0.8500 ha        1 3VF      0.131000
     36 H5         -2.2380   -6.6440   -0.4870 ha        1 3VF      0.171000
     37 H6         -6.6530   -6.0480   -5.5410 ha        1 3VF      0.160500
     38 H7         -5.4550   -3.2360   -8.6120 ha        1 3VF      0.171000
     39 H8         -2.8040   -6.4870   -7.4940 ha        1 3VF      0.160500
     40 H9         -3.2810   -8.6720   -0.4520 h1        1 3VF      0.069033
     41 H10        -2.6400  -10.1350   -1.3740 h1        1 3VF      0.069033
     42 H11        -1.4800   -8.8130   -0.8230 h1        1 3VF      0.069033
     43 H12        -2.4600   -0.2220   -3.1120 hx        1 3VF      0.129200
     44 H13        -0.7380   -0.6770   -3.5340 hx        1 3VF      0.129200
     45 H14        -2.4400   -2.0190   -1.4770 hn        1 3VF      0.466800
     46 H17        -4.9360   -8.6700   -3.8000 hc        1 3VF      0.054200
     47 H18        -5.4040   -6.9170   -3.8210 hc        1 3VF      0.054200
     48 H19        -6.3310   -8.1200   -4.8200 hc        1 3VF      0.054200
     49 H20        -4.2170   -9.7650   -5.9630 hc        1 3VF      0.054200
     50 H21        -3.7000   -8.7380   -7.3660 hc        1 3VF      0.054200
     51 H22        -5.4680   -8.9150   -6.9750 hc        1 3VF      0.054200
     52 C17        -2.9440   -7.5010   -5.0670 c         1 3VF      0.588700
     53 H82        -0.8800   -2.4330   -1.8620 hn        1 3VF      0.466800
     54 O21        -2.7390   -8.4610   -2.4680 os        1 3VF     -0.291900
@<TRIPOS>BOND
     1    1    2 ar  
     2    1   21 ar  
     3    1   22 1   
     4    2    3 ar  
     5    2   32 1   
     6    3   19 ar  
     7    3   33 1   
     8    4    5 ar  
     9    4    9 ar  
    10    4   54 1   
    11    5    6 ar  
    12    5   52 1   
    13    6    7 ar  
    14    6   34 1   
    15    7    8 ar  
    16    7   12 1   
    17    8    9 ar  
    18    8   35 1   
    19    9   36 1   
    20   10   11 1   
    21   10   29 1   
    22   10   30 1   
    23   10   52 1   
    24   11   13 ar  
    25   11   17 ar  
    26   12   23 1   
    27   12   31 2   
    28   13   14 ar  
    29   13   37 1   
    30   14   15 ar  
    31   14   27 1   
    32   15   16 ar  
    33   15   38 1   
    34   16   17 ar  
    35   16   28 1   
    36   17   39 1   
    37   18   40 1   
    38   18   41 1   
    39   18   42 1   
    40   18   54 1   
    41   19   20 ar  
    42   20   21 ar  
    43   20   24 1   
    44   22   23 1   
    45   22   43 1   
    46   22   44 1   
    47   23   45 1   
    48   23   53 1   
    49   24   25 3   
    50   26   52 2   
    51   29   46 1   
    52   29   47 1   
    53   29   48 1   
    54   30   49 1   
    55   30   50 1   
    56   30   51 1   
@<TRIPOS>SUBSTRUCTURE
     1 3VF         1 TEMP              0 ****  ****    0 ROOT
