@<TRIPOS>MOLECULE
molecule
   54    55     1     0     0
SMALL
bcc


@<TRIPOS>ATOM
      1 C1           0.0000     0.0000     0.0000 ca         1 3VJ       0.216100
      2 C2           1.4060     0.0000     0.0000 ca         1 3VJ      -0.232600
      3 C3           2.0980     0.0000     1.2130 ca         1 3VJ       0.004000
      4 C13          5.6130    -1.0360    -0.2720 ca         1 3VJ      -0.118500
      5 C14          6.1780    -2.1060     0.4010 ca         1 3VJ       0.041900
      6 C15          5.3850    -3.1640     0.8050 ca         1 3VJ      -0.116000
      7 C16          4.0280    -3.1540     0.5370 ca         1 3VJ       0.041900
      8 C17          3.4650    -2.0830    -0.1360 ca         1 3VJ      -0.118500
      9 C22          2.1540     0.0000     6.1330 c3         1 3VJ       0.042000
     10 C23          1.1630     0.0000     7.2690 c          1 3VJ       0.652100
     11 C26          0.6390     0.0000     9.6490 c3         1 3VJ       0.065700
     12 C30          1.3810    -0.0000    10.9600 c2         1 3VJ       0.411200
     13 C4           1.3910    -0.0010     2.4110 ca         1 3VJ      -0.204600
     14 C5          -0.0100     0.0010     2.3990 ca         1 3VJ      -0.034000
     15 C6          -0.6940     0.0050     1.2050 ca         1 3VJ      -0.248000
     16 C7           2.1430    -0.0010    -1.2710 c          1 3VJ       0.586700
     17 C8           3.6430     0.1400    -1.2710 c3         1 3VJ      -0.110700
     18 O9           1.5440    -0.1150    -2.3190 o          1 3VJ      -0.498100
     19 C10          4.2570    -1.0260    -0.5390 ca         1 3VJ      -0.060300
     20 O11         -0.6790     0.0010    -1.1720 os         1 3VJ      -0.285900
     21 Cl2          3.0330    -4.4820     1.0430 cl         1 3VJ      -0.098400
     22 N20          1.4330    -0.0000     4.8570 ns         1 3VJ      -0.575900
     23 O21          3.3330    -0.0000     3.7070 o          1 3VJ      -0.618100
     24 O24         -0.0270     0.0000     7.0370 o          1 3VJ      -0.613100
     25 N25          1.6010     0.0000     8.5430 ns         1 3VJ      -0.582900
     26 N31          1.1420     0.9080    11.8310 n2         1 3VJ      -0.770100
     27 H1           3.1810     0.0000     1.2200 ha         1 3VJ       0.177000
     28 H2           6.2340    -0.2060    -0.5880 ha         1 3VJ       0.154500
     29 H3           5.8270    -4.0020     1.3310 ha         1 3VJ       0.157000
     30 H4           2.4020    -2.0750    -0.3460 ha         1 3VJ       0.154500
     31 H5           2.7760    -0.8840     6.1960 h1         1 3VJ       0.072700
     32 H6           2.7760     0.8850     6.1960 h1         1 3VJ       0.072700
     33 H7           0.0160    -0.8840     9.5860 h1         1 3VJ       0.076200
     34 H8           0.0170     0.8850     9.5860 h1         1 3VJ       0.076200
     35 H9          -2.5200    -0.0000    -2.0970 h1         1 3VJ       0.046367
     36 H10         -2.4380     0.8870    -0.5690 h1         1 3VJ       0.046367
     37 H11         -2.4390    -0.8820    -0.5660 h1         1 3VJ       0.046367
     38 H12          3.8960    -0.7700    -3.2010 hc         1 3VJ       0.048033
     39 H13          3.6940     0.9870    -3.2450 hc         1 3VJ       0.048033
     40 H14          5.2290     0.2860    -2.7140 hc         1 3VJ       0.048033
     41 H15          3.1950     2.1310    -0.5960 hc         1 3VJ       0.048033
     42 H16          4.3000     1.2360     0.4570 hc         1 3VJ       0.048033
     43 H17          4.8790     1.8890    -1.0820 hc         1 3VJ       0.048033
     44 H18          2.1160    -0.7690    11.1670 h4         1 3VJ      -0.038200
     45 H19         -0.5580     0.0020     3.3330 ha         1 3VJ       0.137000
     46 H20         -1.7770     0.0060     1.2030 ha         1 3VJ       0.146000
     47 H21          0.4320    -0.0010     4.8480 hn         1 3VJ       0.339500
     48 H22          2.5830     0.0240     8.7350 hn         1 3VJ       0.318500
     49 H23          1.6350     0.9080    12.7020 hn         1 3VJ       0.403400
     50 C12          2.1170    -0.0000     3.6960 c          1 3VJ       0.682700
     51 Cl1          7.8820    -2.1190     0.7350 cl         1 3VJ      -0.098400
     52 C27         -2.1050     0.0010    -1.0960 c3         1 3VJ       0.120700
     53 C28          4.1530     0.1620    -2.7130 c3         1 3VJ      -0.077600
     54 C29          4.0330     1.4440    -0.5720 c3         1 3VJ      -0.077600
@<TRIPOS>BOND
     1    26    12 2
     2    12    11 1
     3    11    25 1
     4    25    10 1
     5    10    24 2
     6    10     9 1
     7     9    22 1
     8    22    50 1
     9    50    23 2
    10    50    13 1
    11    14    15 ar
    12    14    13 ar
    13    15     1 ar
    14    13     3 ar
    15     1    20 1
    16     1     2 ar
    17    52    20 1
    18     3     2 ar
    19     2    16 1
    20    53    17 1
    21    51     5 1
    22    16    17 1
    23    16    18 2
    24     4     5 ar
    25     4    19 ar
    26    17    19 1
    27    17    54 1
    28     5     6 ar
    29    19     8 ar
    30     6     7 ar
    31     8     7 ar
    32     7    21 1
    33     3    27 1
    34     4    28 1
    35     6    29 1
    36     8    30 1
    37     9    31 1
    38     9    32 1
    39    11    33 1
    40    11    34 1
    41    52    35 1
    42    52    36 1
    43    52    37 1
    44    53    38 1
    45    53    39 1
    46    53    40 1
    47    54    41 1
    48    54    42 1
    49    54    43 1
    50    12    44 1
    51    14    45 1
    52    15    46 1
    53    22    47 1
    54    25    48 1
    55    26    49 1
@<TRIPOS>SUBSTRUCTURE
     1 3VJ         1 TEMP              0 ****  ****    0 ROOT
