@<TRIPOS>MOLECULE
3VJ
   54    55     1     0     0
SMALL
bcc


@<TRIPOS>ATOM
      1 C1           0.0000     0.0000     0.0000 ca         1 3VJ       0.232100
      2 C2           1.4060     0.0000     0.0000 ca         1 3VJ      -0.249600
      3 C3           2.0980     0.0000     1.2130 ca         1 3VJ       0.023000
      4 C13          5.6130    -1.0360    -0.2720 ca         1 3VJ      -0.105000
      5 C14          6.1780    -2.1060     0.4010 ca         1 3VJ      -0.017600
      6 C15          5.3850    -3.1640     0.8050 ca         1 3VJ      -0.098000
      7 C16          4.0280    -3.1540     0.5370 ca         1 3VJ      -0.017600
      8 C17          3.4650    -2.0830    -0.1360 ca         1 3VJ      -0.105000
      9 C22          2.1540     0.0000     6.1330 c3         1 3VJ      -0.015000
     10 C23          1.1630     0.0000     7.2690 c          1 3VJ       0.563100
     11 C26          0.6390     0.0000     9.6490 c3         1 3VJ      -0.040300
     12 C30          1.3810    -0.0000    10.9600 c2         1 3VJ       0.368200
     13 C4           1.3910    -0.0010     2.4110 ca         1 3VJ      -0.218600
     14 C5          -0.0100     0.0010     2.3990 ca         1 3VJ      -0.004000
     15 C6          -0.6940     0.0050     1.2050 ca         1 3VJ      -0.240000
     16 C7           2.1430    -0.0010    -1.2710 c          1 3VJ       0.636700
     17 C8           3.6430     0.1400    -1.2710 c3         1 3VJ      -0.099700
     18 O9           1.5440    -0.1150    -2.3190 o          1 3VJ      -0.536100
     19 C10          4.2570    -1.0260    -0.5390 ca         1 3VJ      -0.059300
     20 O11         -0.6790     0.0010    -1.1720 os         1 3VJ      -0.263900
     21 Cl2          3.0330    -4.4820     1.0430 cl         1 3VJ      -0.019900
     22 N20          1.4330    -0.0000     4.8570 ns         1 3VJ      -0.191900
     23 O21          3.3330    -0.0000     3.7070 o          1 3VJ      -0.663100
     24 O24         -0.0270     0.0000     7.0370 o          1 3VJ      -0.655100
     25 N25          1.6010     0.0000     8.5430 ns         1 3VJ      -0.178900
     26 N31          1.1420     0.9080    11.8310 n2         1 3VJ      -0.608100
     27 H1           3.1810     0.0000     1.2200 ha         1 3VJ       0.156000
     28 H2           6.2340    -0.2060    -0.5880 ha         1 3VJ       0.130500
     29 H3           5.8270    -4.0020     1.3310 ha         1 3VJ       0.125000
     30 H4           2.4020    -2.0750    -0.3460 ha         1 3VJ       0.130500
     31 H5           2.7760     0.8850     6.1960 h1         1 3VJ       0.040200
     32 H6           2.7760    -0.8840     6.1960 h1         1 3VJ       0.040200
     33 H7           0.0170     0.8850     9.5860 h1         1 3VJ       0.035700
     34 H8           0.0160    -0.8840     9.5860 h1         1 3VJ       0.035700
     35 H9          -2.4380     0.8870    -0.5690 h1         1 3VJ       0.001367
     36 H10         -2.4390    -0.8820    -0.5660 h1         1 3VJ       0.001367
     37 H11         -2.5200    -0.0000    -2.0970 h1         1 3VJ       0.001367
     38 H12          5.2290     0.2860    -2.7140 hc         1 3VJ       0.016367
     39 H13          3.6940     0.9870    -3.2450 hc         1 3VJ       0.016367
     40 H14          3.8960    -0.7700    -3.2010 hc         1 3VJ       0.016367
     41 H15          4.2580     1.2430     0.4690 hc         1 3VJ       0.016367
     42 H16          4.9060     1.8660    -1.0550 hc         1 3VJ       0.016367
     43 H17          3.2100     2.1470    -0.6340 hc         1 3VJ       0.016367
     44 H18          2.1160    -0.7690    11.1670 h4         1 3VJ      -0.007200
     45 H19         -0.5580     0.0020     3.3330 ha         1 3VJ       0.107000
     46 H20         -1.7770     0.0060     1.2030 ha         1 3VJ       0.129000
     47 H21          0.4320    -0.0000     4.8480 hn         1 3VJ       0.207500
     48 H22          2.5830     0.0040     8.7350 hn         1 3VJ       0.180500
     49 H23          0.4630     1.6180    11.6400 hn         1 3VJ       0.318400
     50 C12          2.1170    -0.0000     3.6960 c          1 3VJ       0.604700
     51 Cl1          7.8820    -2.1190     0.7350 cl         1 3VJ      -0.019900
     52 C27         -2.1050     0.0010    -1.0960 c3         1 3VJ       0.234700
     53 C28          4.1530     0.1620    -2.7130 c3         1 3VJ       0.006900
     54 C29          4.0330     1.4440    -0.5720 c3         1 3VJ       0.006900
@<TRIPOS>BOND
     1     1     2 ar  
     2     1    15 ar  
     3     1    20 1   
     4     2     3 ar  
     5     2    16 1   
     6     3    13 ar  
     7     3    27 1   
     8     4     5 ar  
     9     4    19 ar  
    10     4    28 1   
    11     5     6 ar  
    12     5    51 1   
    13     6     7 ar  
    14     6    29 1   
    15     7     8 ar  
    16     7    21 1   
    17     8    19 ar  
    18     8    30 1   
    19     9    10 1   
    20     9    22 1   
    21     9    31 1   
    22     9    32 1   
    23    10    24 2   
    24    10    25 1   
    25    11    12 1   
    26    11    25 1   
    27    11    33 1   
    28    11    34 1   
    29    12    26 2   
    30    12    44 1   
    31    13    14 ar  
    32    13    50 1   
    33    14    15 ar  
    34    14    45 1   
    35    15    46 1   
    36    16    17 1   
    37    16    18 2   
    38    17    19 1   
    39    17    53 1   
    40    17    54 1   
    41    20    52 1   
    42    22    47 1   
    43    22    50 1   
    44    23    50 2   
    45    25    48 1   
    46    26    49 1   
    47    35    52 1   
    48    36    52 1   
    49    37    52 1   
    50    38    53 1   
    51    39    53 1   
    52    40    53 1   
    53    41    54 1   
    54    42    54 1   
    55    43    54 1   
@<TRIPOS>SUBSTRUCTURE
     1 3VJ         1 TEMP              0 ****  ****    0 ROOT
