@<TRIPOS>MOLECULE
molecule
   68    68     1     0     0
SMALL
bcc


@<TRIPOS>ATOM
      1 C1           0.0000     0.0000     0.0000 ca         1 3VK      -0.112000
      2 C2           1.3830     0.0000     0.0000 ca         1 3VK       0.032400
      3 C3           2.0750     0.0000     1.1990 ca         1 3VK      -0.105000
      4 C14          2.9400     3.6550     4.5030 c3         1 3VK       0.060700
      5 C15          3.5480     4.6440     3.5420 c          1 3VK       0.659100
      6 C18          3.7320     3.6630     5.8120 c3         1 3VK      -0.079000
      7 C19          3.0650     2.7200     6.8160 c3         1 3VK      -0.085433
      8 C20          5.1640     3.1930     5.5440 c3         1 3VK      -0.085433
      9 C21          3.7590     5.0810     6.3830 c3         1 3VK      -0.085433
     10 C22          3.6970     6.8840     2.5950 c3         1 3VK       0.038000
     11 C23          3.1590     8.2610     2.8840 c          1 3VK       0.650100
     12 C25          2.9670    10.6350     2.3640 c3         1 3VK       0.122000
     13 C27          3.4910    11.6170     1.3150 c3         1 3VK      -0.077400
     14 C28          2.9450    13.0160     1.6070 c3         1 3VK      -0.208600
     15 C30          2.8060    15.7390     0.8970 c3         1 3VK      -0.225300
     16 C4           1.3840    -0.0010     2.3960 ca         1 3VK      -0.088300
     17 C5           0.0020    -0.0010     2.3960 ca         1 3VK      -0.105000
     18 C6          -0.6910     0.0060     1.1980 ca         1 3VK       0.032400
     19 Cl7         -2.4270     0.0060     1.1990 cl         1 3VK      -0.093400
     20 Cl8          2.2520    -0.0000    -1.5030 cl         1 3VK      -0.093400
     21 C9           2.1370    -0.0020     3.7010 c3         1 3VK       0.149800
     22 C10          2.0940     1.3780     4.3060 c          1 3VK       0.663100
     23 N11          1.5160    -0.9610     4.6240 n7         1 3VK      -0.792200
     24 O12          1.2610     1.6470     5.1460 o          1 3VK      -0.580100
     25 N13          2.9820     2.3140     3.9150 ns         1 3VK      -0.572900
     26 O17          4.3550     4.2700     2.7170 o          1 3VK      -0.623100
     27 N24          3.4910     9.2960     2.0840 ns         1 3VK      -0.584900
     28 O26          2.4280     8.4400     3.8350 o          1 3VK      -0.611100
     29 S29          3.5660    14.1800     0.3640 s6         1 3VK       1.099000
     30 O31          4.9760    14.2900     0.5100 o          1 3VK      -0.609800
     31 O32          3.0250    13.8230    -0.9010 o          1 3VK      -0.609800
     32 C33          2.4950    -1.4630     5.5980 c3         1 3VK       0.152800
     33 C34          1.8360    -2.5210     6.4840 c3         1 3VK      -0.094100
     34 H1          -0.5420     0.0030    -0.9380 ha         1 3VK       0.158000
     35 H2           3.1580     0.0000     1.1990 ha         1 3VK       0.162000
     36 H3           1.9110     3.9300     4.7020 h1         1 3VK       0.090700
     37 H4           1.9930     2.8700     6.7940 hc         1 3VK       0.041478
     38 H5           3.2920     1.6940     6.5540 hc         1 3VK       0.041478
     39 H6           3.4390     2.9300     7.8110 hc         1 3VK       0.041478
     40 H7           5.6790     3.9310     4.9420 hc         1 3VK       0.041478
     41 H8           5.1410     2.2480     5.0160 hc         1 3VK       0.041478
     42 H9           5.6850     3.0680     6.4860 hc         1 3VK       0.041478
     43 H10          4.1600     5.0570     7.3890 hc         1 3VK       0.041478
     44 H11          4.3840     5.7090     5.7600 hc         1 3VK       0.041478
     45 H12          2.7530     5.4810     6.4050 hc         1 3VK       0.041478
     46 H13          3.3730     6.5680     1.6110 h1         1 3VK       0.072700
     47 H14          4.7800     6.9050     2.6290 h1         1 3VK       0.072700
     48 H15          1.8850    10.6140     2.3300 h1         1 3VK       0.057700
     49 H16          3.2910    10.9510     3.3490 h1         1 3VK       0.057700
     50 H17          4.5740    11.6380     1.3490 hc         1 3VK       0.064200
     51 H18          3.1670    11.3010     0.3310 hc         1 3VK       0.064200
     52 H19          1.8620    12.9950     1.5730 h1         1 3VK       0.098700
     53 H20          3.2690    13.3320     2.5920 h1         1 3VK       0.098700
     54 H21          3.1350    15.9760     1.9020 h1         1 3VK       0.098700
     55 H22          3.1030    16.5340     0.2230 h1         1 3VK       0.098700
     56 H23          1.7280    15.6380     0.8840 h1         1 3VK       0.098700
     57 H24         -0.5400     0.0010     3.3340 ha         1 3VK       0.162000
     58 H25          3.1670    -0.2860     3.5230 h1         1 3VK       0.043700
     59 H26          1.1390    -1.7280     4.1040 hn         1 3VK       0.364800
     60 H28          3.6410     2.1060     3.1910 hn         1 3VK       0.333500
     61 H29          2.5510     6.2550     4.2980 hn         1 3VK       0.345500
     62 H30          4.1000     9.1500     1.3040 hn         1 3VK       0.319500
     63 H31          3.3340    -1.9030     5.0730 h1         1 3VK       0.034200
     64 H32          2.8440    -0.6430     6.2140 h1         1 3VK       0.034200
     65 H33          0.9080    -2.1310     6.8840 hc         1 3VK       0.042367
     66 H34          1.6310    -3.4070     5.8960 hc         1 3VK       0.042367
     67 H35          2.5020    -2.7760     7.2990 hc         1 3VK       0.042367
     68 N16          3.1950     5.9430     3.5990 ns         1 3VK      -0.571900
@<TRIPOS>BOND
     1    19    18 1
     2    18     1 ar
     3    18    17 ar
     4    33    32 1
     5     1     2 ar
     6    17    16 ar
     7    23    32 1
     8    23    21 1
     9     2    20 1
    10     2     3 ar
    11    16     3 ar
    12    16    21 1
    13    21    22 1
    14    24    22 2
    15    22    25 1
    16    25     4 1
    17     4     5 1
    18     4     6 1
    19     8     6 1
    20    26     5 2
    21     5    68 1
    22     6     9 1
    23     6     7 1
    24    68    10 1
    25    10    11 1
    26    28    11 2
    27    11    27 1
    28    27    12 1
    29    12    13 1
    30    13    14 1
    31    14    29 1
    32    29    31 2
    33    29    30 2
    34    29    15 1
    35     1    34 1
    36     3    35 1
    37     4    36 1
    38     7    37 1
    39     7    38 1
    40     7    39 1
    41     8    40 1
    42     8    41 1
    43     8    42 1
    44     9    43 1
    45     9    44 1
    46     9    45 1
    47    10    46 1
    48    10    47 1
    49    12    48 1
    50    12    49 1
    51    13    50 1
    52    13    51 1
    53    14    52 1
    54    14    53 1
    55    15    54 1
    56    15    55 1
    57    15    56 1
    58    17    57 1
    59    21    58 1
    60    23    59 1
    61    25    60 1
    62    68    61 1
    63    27    62 1
    64    32    63 1
    65    32    64 1
    66    33    65 1
    67    33    66 1
    68    33    67 1
@<TRIPOS>SUBSTRUCTURE
     1 3VK         1 TEMP              0 ****  ****    0 ROOT
