@<TRIPOS>MOLECULE
3VK
   68    68     1     0     0
SMALL
bcc


@<TRIPOS>ATOM
      1 C1           0.0000     0.0000     0.0000 ca         1 3VK      -0.094000
      2 C2           1.3830     0.0000     0.0000 ca         1 3VK      -0.029600
      3 C3           2.0750     0.0000     1.1990 ca         1 3VK      -0.084500
      4 C14          2.9400     3.6550     4.5030 c3         1 3VK      -0.041300
      5 C15          3.5480     4.6440     3.5420 c          1 3VK       0.571100
      6 C18          3.7320     3.6630     5.8120 c3         1 3VK      -0.075000
      7 C19          3.0650     2.7200     6.8160 c3         1 3VK      -0.007767
      8 C20          5.1640     3.1930     5.5440 c3         1 3VK      -0.007767
      9 C21          3.7590     5.0810     6.3830 c3         1 3VK      -0.007767
     10 C22          3.6970     6.8840     2.5950 c3         1 3VK      -0.021000
     11 C23          3.1590     8.2610     2.8840 c          1 3VK       0.564100
     12 C25          2.9670    10.6350     2.3640 c3         1 3VK       0.049000
     13 C27          3.4910    11.6170     1.3150 c3         1 3VK      -0.008400
     14 C28          2.9450    13.0160     1.6070 c3         1 3VK      -0.011600
     15 C30          2.8060    15.7390     0.8970 c3         1 3VK       0.017700
     16 C4           1.3840    -0.0010     2.3960 ca         1 3VK      -0.092300
     17 C5           0.0020    -0.0010     2.3960 ca         1 3VK      -0.084500
     18 C6          -0.6910     0.0060     1.1980 ca         1 3VK      -0.029600
     19 Cl7         -2.4270     0.0060     1.1990 cl         1 3VK      -0.013400
     20 Cl8          2.2520    -0.0000    -1.5030 cl         1 3VK      -0.013400
     21 C9           2.1370    -0.0020     3.7010 c3         1 3VK       0.112800
     22 C10          2.0940     1.3780     4.3060 c          1 3VK       0.569100
     23 N11          1.5160    -0.9610     4.6240 n7         1 3VK      -0.552200
     24 O12          1.2610     1.6470     5.1460 o          1 3VK      -0.623100
     25 N13          2.9820     2.3140     3.9150 ns         1 3VK      -0.179900
     26 O17          4.3550     4.2700     2.7170 o          1 3VK      -0.665100
     27 N24          3.4910     9.2960     2.0840 ns         1 3VK      -0.184900
     28 O26          2.4280     8.4400     3.8350 o          1 3VK      -0.653100
     29 S29          3.5660    14.1800     0.3640 s6         1 3VK       0.793000
     30 O31          4.9760    14.2900     0.5100 o          1 3VK      -0.584800
     31 O32          3.0250    13.8230    -0.9010 o          1 3VK      -0.584800
     32 C33          2.4950    -1.4630     5.5980 c3         1 3VK       0.136800
     33 C34          1.8360    -2.5210     6.4840 c3         1 3VK       0.004900
     34 H1          -0.5420     0.0030    -0.9380 ha         1 3VK       0.126000
     35 H2           3.1580     0.0000     1.1990 ha         1 3VK       0.132500
     36 H3           1.9110     3.9300     4.7020 h1         1 3VK       0.065700
     37 H4           1.9930     2.8700     6.7940 hc         1 3VK       0.013589
     38 H5           3.2920     1.6940     6.5540 hc         1 3VK       0.013589
     39 H6           3.4390     2.9300     7.8110 hc         1 3VK       0.013589
     40 H7           5.6790     3.9310     4.9420 hc         1 3VK       0.013589
     41 H8           5.1410     2.2480     5.0160 hc         1 3VK       0.013589
     42 H9           5.6850     3.0680     6.4860 hc         1 3VK       0.013589
     43 H10          4.1600     5.0570     7.3890 hc         1 3VK       0.013589
     44 H11          4.3840     5.7090     5.7600 hc         1 3VK       0.013589
     45 H12          2.7530     5.4810     6.4050 hc         1 3VK       0.013589
     46 H13          3.3730     6.5680     1.6110 h1         1 3VK       0.039700
     47 H14          4.7800     6.9050     2.6290 h1         1 3VK       0.039700
     48 H15          1.8850    10.6140     2.3300 h1         1 3VK       0.028200
     49 H16          3.2910    10.9510     3.3490 h1         1 3VK       0.028200
     50 H17          4.5740    11.6380     1.3490 hc         1 3VK       0.034700
     51 H18          3.1670    11.3010     0.3310 hc         1 3VK       0.034700
     52 H19          1.8620    12.9950     1.5730 h1         1 3VK       0.066700
     53 H20          3.2690    13.3320     2.5920 h1         1 3VK       0.066700
     54 H21          3.1350    15.9760     1.9020 h1         1 3VK       0.060700
     55 H22          3.1030    16.5340     0.2230 h1         1 3VK       0.060700
     56 H23          1.7280    15.6380     0.8840 h1         1 3VK       0.060700
     57 H24         -0.5400     0.0010     3.3340 ha         1 3VK       0.132500
     58 H25          3.1670    -0.2860     3.5230 h1         1 3VK       0.021700
     59 H26          1.1390    -1.7280     4.1040 hn         1 3VK       0.260800
     60 H28          3.6410     2.1060     3.1910 hn         1 3VK       0.198500
     61 H29          2.5510     6.2550     4.2980 hn         1 3VK       0.213500
     62 H30          4.1000     9.1500     1.3040 hn         1 3VK       0.180500
     63 H31          3.3340    -1.9030     5.0730 h1         1 3VK       0.007200
     64 H32          2.8440    -0.6430     6.2140 h1         1 3VK       0.007200
     65 H33          0.9080    -2.1310     6.8840 hc         1 3VK       0.006700
     66 H34          1.6310    -3.4070     5.8960 hc         1 3VK       0.006700
     67 H35          2.5020    -2.7760     7.2990 hc         1 3VK       0.006700
     68 N16          3.1950     5.9430     3.5990 ns         1 3VK      -0.180900
@<TRIPOS>BOND
     1     1     2 ar  
     2     1    18 ar  
     3     1    34 1   
     4     2     3 ar  
     5     2    20 1   
     6     3    16 ar  
     7     3    35 1   
     8     4     5 1   
     9     4     6 1   
    10     4    25 1   
    11     4    36 1   
    12     5    26 2   
    13     5    68 1   
    14     6     7 1   
    15     6     8 1   
    16     6     9 1   
    17     7    37 1   
    18     7    38 1   
    19     7    39 1   
    20     8    40 1   
    21     8    41 1   
    22     8    42 1   
    23     9    43 1   
    24     9    44 1   
    25     9    45 1   
    26    10    11 1   
    27    10    46 1   
    28    10    47 1   
    29    10    68 1   
    30    11    27 1   
    31    11    28 2   
    32    12    13 1   
    33    12    27 1   
    34    12    48 1   
    35    12    49 1   
    36    13    14 1   
    37    13    50 1   
    38    13    51 1   
    39    14    29 1   
    40    14    52 1   
    41    14    53 1   
    42    15    29 1   
    43    15    54 1   
    44    15    55 1   
    45    15    56 1   
    46    16    17 ar  
    47    16    21 1   
    48    17    18 ar  
    49    17    57 1   
    50    18    19 1   
    51    21    22 1   
    52    21    23 1   
    53    21    58 1   
    54    22    24 2   
    55    22    25 1   
    56    23    32 1   
    57    23    59 1   
    58    25    60 1   
    59    27    62 1   
    60    29    30 2   
    61    29    31 2   
    62    32    33 1   
    63    32    63 1   
    64    32    64 1   
    65    33    65 1   
    66    33    66 1   
    67    33    67 1   
    68    61    68 1   
@<TRIPOS>SUBSTRUCTURE
     1 3VK         1 TEMP              0 ****  ****    0 ROOT
