@<TRIPOS>MOLECULE
3VM
   69    67     1     0     0
SMALL
bcc


@<TRIPOS>ATOM
      1 C13        -5.8170   30.7670   10.0810 ca        1 3VM     -0.079000
      2 C18        -6.0300   27.3500   12.4820 c2        1 3VM      0.083000
      3 C17        -7.0750   32.2780    7.1420 c2        1 3VM     -0.216000
      4 C16        -6.5540   29.5240   11.9980 ca        1 3VM     -0.056000
      5 C15        -8.3780   29.2450    2.8700 c3        1 3VM     -0.009000
      6 C19        -9.0850   33.7460    5.3020 c2        1 3VM      0.226000
      7 C20        -8.0250   35.2700    3.6350 c2        1 3VM     -0.247000
      8 C21        -4.1220   25.0690    9.4220 c1        1 3VM     -0.224000
      9 C22        -6.8480   35.8600    3.4320 c2        1 3VM     -0.145000
     10 C23        -3.4760   24.5740   10.2990 c1        1 3VM     -0.224000
     11 C24        -8.6590   35.1490    4.9690 c3        1 3VM     -0.151000
     12 C11        -7.6830   33.3330    9.1310 c1        1 3VM      0.003000
     13 C12        -5.8120   28.3660   11.4960 ca        1 3VM     -0.193000
     14 C1         -7.2010   32.4520    1.8360 c1        1 3VM     -0.281000
     15 C2         -7.5410   31.3070    1.7410 c1        1 3VM     -0.119000
     16 C3        -10.4880   30.3910    3.9630 c1        1 3VM     -0.236000
     17 C4         -5.0950   28.4460   10.2900 ca        1 3VM     -0.033000
     18 C5         -5.1020   29.6270    9.5940 ca        1 3VM     -0.178000
     19 C6         -7.9430   29.9420    1.5770 c3        1 3VM     -0.068000
     20 C7         -9.5200   29.8870    3.4670 c1        1 3VM     -0.166000
     21 C8         -6.5590   33.2270    9.8070 c2        1 3VM     -0.136000
     22 C9         -6.5350   30.7360   11.2500 ca        1 3VM     -0.076000
     23 C10        -6.0320   31.8060    7.8830 c1        1 3VM      0.057000
     24 C14        -5.7150   32.0260    9.2770 c3        1 3VM     -0.020000
     25 C25        -5.4390   27.0450    6.6800 c3        1 3VM     -0.278000
     26 C26        -7.2260   29.1220    3.8520 c3        1 3VM     -0.223000
     27 C28        -7.1580   32.1160    5.7790 c1        1 3VM      0.035000
     28 N29        -8.1610   32.9790    7.9810 n3        1 3VM     -0.142000
     29 N30        -6.8680   27.9420   13.4430 na        1 3VM     -0.139000
     30 N31        -7.1720   29.2160   13.1810 n2        1 3VM     -0.093000
     31 N32        -5.4740   26.0860   12.5590 nh        1 3VM     -0.312000
     32 N34        -8.1710   32.6290    4.8930 n4        1 3VM     -0.113000
     33 O35       -10.1140   33.4320    5.8930 o         1 3VM     -0.223000
     34 H2         -6.4270   35.9830    2.4230 ha        1 3VM      0.137000
     35 H3         -4.6840   25.4960    8.6270 ha        1 3VM      0.226500
     36 H4         -9.5830   35.7970    5.0060 hc        1 3VM      0.154500
     37 H5         -6.2300   36.2700    4.2440 ha        1 3VM      0.137000
     38 H6         -5.3030   27.6690    7.5920 hc        1 3VM      0.069250
     39 H7         -2.8930   24.1350   11.0720 ha        1 3VM      0.226500
     40 H8         -4.4750   26.5550    6.4180 hc        1 3VM      0.069250
     41 H9         -7.9710   35.5000    5.7900 hc        1 3VM      0.154500
     42 H10        -9.0960   32.6140    7.9200 hn        1 3VM      0.252000
     43 H13       -11.3750   30.7990    4.3840 ha        1 3VM      0.238000
     44 H14        -8.7920   29.8990    0.8360 hc        1 3VM      0.127000
     45 H15        -6.8700   33.4610    1.8560 ha        1 3VM      0.226000
     46 H16        -4.5390   27.5670    9.9230 ha        1 3VM      0.143000
     47 H17        -4.5560   29.7230    8.6430 ha        1 3VM      0.146000
     48 H18        -7.0820   29.3600    1.1380 hc        1 3VM      0.127000
     49 H19        -8.7000   28.1960    2.5770 hc        1 3VM      0.133000
     50 H20        -6.1390   33.8760   10.5790 ha        1 3VM      0.211000
     51 H21        -7.0810   31.6110   11.6320 ha        1 3VM      0.146000
     52 H22        -4.6430   32.4070    9.3550 hc        1 3VM      0.197000
     53 H23        74.7410 -338.6850 -125.0560 h4        1 3VM      0.215000
     54 H24        -6.3750   28.5820    3.3720 hc        1 3VM      0.091333
     55 H25        -7.5470   28.5460    4.7540 hc        1 3VM      0.091333
     56 H26        -6.8660   30.1280    4.1810 hc        1 3VM      0.091333
     57 H27        -7.1630   27.5350   14.3030 hn        1 3VM      0.283000
     58 H28        -5.0990   25.7650   11.6890 hn        1 3VM      0.214000
     59 H29        -5.9960   25.4010   13.0590 hn        1 3VM      0.214000
     60 H30        73.2030 -338.7200 -123.9230 h4        1 3VM      0.215000
     61 H31        73.4150 -339.8250 -126.7180 hn        1 3VM      0.293000
     62 H33        -8.7440   31.7950    4.6280 hn        1 3VM      0.292000
     63 C27        73.6750 -338.9740 -124.9010 c2        1 3VM      0.119000
     64 N33        73.0080 -339.5850 -125.8250 n3        1 3VM     -0.136000
     65 H11        -5.7660   27.6910    5.8350 hc        1 3VM      0.069250
     66 H12        -6.2110   26.2690    6.8710 hc        1 3VM      0.069250
     67 H342       -7.6450   32.9160    4.0420 hn        1 3VM      0.292000
     68 H333       72.0430 -339.8570 -125.7070 hn        1 3VM      0.293000
     69 H1         -8.6330   34.9020    2.7900 ha        1 3VM      0.145000
@<TRIPOS>BOND
     1    1   18 1
     2    1   22 1
     3    1   24 1
     4    2   13 1
     5    2   29 1
     6    2   31 1
     7    3   23 1
     8    3   27 1
     9    3   28 1
    10    4   13 1
    11    4   22 1
    12    4   30 1
    13    5   19 1
    14    5   20 1
    15    5   26 1
    16    5   49 1
    17    6   11 1
    18    6   32 1
    19    6   33 1
    20    7    9 1
    21    7   11 1
    22    7   69 1
    23    8   10 1
    24    8   35 1
    25    9   34 1
    26    9   37 1
    27   10   39 1
    28   11   36 1
    29   11   41 1
    30   12   21 1
    31   12   28 1
    32   13   17 1
    33   14   15 1
    34   14   45 1
    35   15   19 1
    36   16   20 1
    37   16   43 1
    38   17   18 1
    39   17   46 1
    40   18   47 1
    41   19   44 1
    42   19   48 1
    43   21   24 1
    44   21   50 1
    45   22   51 1
    46   23   24 1
    47   24   52 1
    48   25   38 1
    49   25   40 1
    50   25   65 1
    51   25   66 1
    52   26   54 1
    53   26   55 1
    54   26   56 1
    55   27   32 1
    56   28   42 1
    57   29   30 1
    58   29   57 1
    59   31   58 1
    60   31   59 1
    61   32   62 1
    62   32   67 1
    63   53   63 1
    64   60   63 1
    65   61   64 1
    66   63   64 1
    67   64   68 1
@<TRIPOS>SUBSTRUCTURE
     1 3VM         1 TEMP              0 ****  ****    0 ROOT
