@<TRIPOS>MOLECULE
3VO
   34    36     1     0     0
SMALL
bcc


@<TRIPOS>ATOM
      1 C4           0.0000     0.0000     0.0000 ca         1 3VO      -0.176300
      2 N2          -4.3230     0.5710    -0.6470 nz         1 3VO       0.196400
      3 C7           1.3850     0.0000     0.0000 ca         1 3VO       0.154900
      4 C6          -0.0020    -0.0080     2.3950 ca         1 3VO      -0.126000
      5 C9          -0.3660     1.2550    -2.0790 c3         1 3VO      -0.093700
      6 C13          1.3830    -0.0010     2.3970 ca         1 3VO       0.170900
      7 C8          -0.7540     0.0000    -1.3050 c3         1 3VO       0.135500
      8 O1          -0.9430    -1.2010    -3.3920 os         1 3VO      -0.395600
      9 C1          -0.5750    -0.0680    -4.1830 c3         1 3VO       0.211400
     10 C2          -1.0070     1.2150    -3.4690 c3         1 3VO      -0.089400
     11 C3          -0.3300    -1.2380    -2.1020 c3         1 3VO       0.212400
     12 C5          -0.6920    -0.0070     1.1970 ca         1 3VO      -0.058000
     13 C10         -0.8580     2.4950    -1.3260 c3         1 3VO       0.107700
     14 S1          -2.6670     2.5430    -1.4420 ss         1 3VO      -0.245300
     15 C11         -3.0320     0.8780    -1.0050 c2         1 3VO       0.154100
     16 N1          -2.1670    -0.0700    -1.0120 n2         1 3VO      -0.340900
     17 C12          2.0760     0.0000     1.1990 ca         1 3VO      -0.143000
     18 F1           2.0600     0.0010    -1.1700 f          1 3VO      -0.111900
     19 F2           2.0570    -0.0020     3.5670 f          1 3VO      -0.102900
     20 H1          -4.4010    -0.4150    -0.4930 hn         1 3VO       0.221133
     21 H2          -4.5620     1.0600     0.1930 hn         1 3VO       0.221133
     22 H3          -0.5450    -0.0110     3.3320 ha         1 3VO       0.135000
     23 H4           0.7120     1.2980    -2.1800 hc         1 3VO       0.093700
     24 H5           0.4990    -0.0590    -4.3210 h1         1 3VO       0.029700
     25 H6          -1.0670    -0.1270    -5.1460 h1         1 3VO       0.029700
     26 H7          -2.0860     1.2270    -3.3690 hc         1 3VO       0.044200
     27 H8          -0.6820     2.0740    -4.0420 hc         1 3VO       0.044200
     28 H9           0.7480    -1.2420    -2.2150 h1         1 3VO       0.046700
     29 H10         -0.6470    -2.1310    -1.5770 h1         1 3VO       0.046700
     30 H11         -1.7750    -0.0100     1.1960 ha         1 3VO       0.094000
     31 H12         -0.4400     3.3860    -1.7780 h1         1 3VO       0.079700
     32 H13         -0.5610     2.4320    -0.2860 h1         1 3VO       0.079700
     33 H14          3.1600     0.0030     1.2000 ha         1 3VO       0.153000
     34 H23         -4.9470     0.8460    -1.3800 hn         1 3VO       0.221133
@<TRIPOS>BOND
     1     1     3 ar  
     2     1     7 1   
     3     1    12 ar  
     4     2    15 1   
     5     2    20 1   
     6     2    21 1   
     7     2    34 1   
     8     3    17 ar  
     9     3    18 1   
    10     4     6 ar  
    11     4    12 ar  
    12     4    22 1   
    13     5     7 1   
    14     5    10 1   
    15     5    13 1   
    16     5    23 1   
    17     6    17 ar  
    18     6    19 1   
    19     7    11 1   
    20     7    16 1   
    21     8     9 1   
    22     8    11 1   
    23     9    10 1   
    24     9    24 1   
    25     9    25 1   
    26    10    26 1   
    27    10    27 1   
    28    11    28 1   
    29    11    29 1   
    30    12    30 1   
    31    13    14 1   
    32    13    31 1   
    33    13    32 1   
    34    14    15 1   
    35    15    16 2   
    36    17    33 1   
@<TRIPOS>SUBSTRUCTURE
     1 3VO         1 TEMP              0 ****  ****    0 ROOT
