@<TRIPOS>MOLECULE
molecule
   37    39     1     0     0
SMALL
bcc


@<TRIPOS>ATOM
      1 C4           0.0000     0.0000     0.0000 ca         1 3VP       0.173900
      2 N2           5.6920    -0.6750    -0.6590 nz         1 3VP      -0.736600
      3 C7           2.1380     0.0000    -1.3050 c3         1 3VP       0.192500
      4 C6           0.0020     0.0010     2.3960 ca         1 3VP       0.192900
      5 C9           1.9620     0.1190    -4.1820 c3         1 3VP       0.102100
      6 C13          4.3920    -0.9430    -1.0200 c2         1 3VP       0.471100
      7 C8           1.7470     1.2610    -2.0830 c3         1 3VP       0.157400
      8 C1           1.3880    -0.0000     2.3940 ca         1 3VP      -0.170000
      9 C2           2.0770     0.0000     1.1970 ca         1 3VP      -0.076000
     10 C3           1.3850     0.0000     0.0000 ca         1 3VP      -0.175300
     11 C5          -0.6920     0.0010     1.2000 ca         1 3VP      -0.189000
     12 F1          -0.6710    -0.0010     3.5680 f          1 3VP      -0.106900
     13 F2          -0.6760     0.0060    -1.1690 f          1 3VP      -0.124900
     14 O1           2.3600     1.2290    -3.3740 os         1 3VP      -0.398600
     15 C10          2.3610    -1.1860    -3.4880 c3         1 3VP      -0.121400
     16 C11          1.7170    -1.2310    -2.0990 c3         1 3VP      -0.114700
     17 C12          2.1770    -2.4960    -1.3660 c3         1 3VP       0.012700
     18 S1           3.9830    -2.5900    -1.4830 ss         1 3VP      -0.208300
     19 N1           3.5530     0.0140    -1.0120 n2         1 3VP      -0.562900
     20 C14          2.6550     0.2060    -5.5430 c3         1 3VP       0.181900
     21 F3           2.2040     1.3400    -6.2250 f          1 3VP      -0.223300
     22 H12          5.7950     0.3060    -0.4890 hn         1 3VP       0.471133
     23 H13          6.3070    -0.9520    -1.3980 hn         1 3VP       0.471133
     24 H1           0.8880     0.1400    -4.3170 h1         1 3VP       0.068700
     25 H6           2.0870     2.1370    -1.5440 h1         1 3VP       0.090200
     26 H7           0.6700     1.2950    -2.1960 h1         1 3VP       0.090200
     27 H3           1.9310    -0.0000     3.3320 ha         1 3VP       0.165000
     28 H4           3.1600    -0.0000     1.1960 ha         1 3VP       0.127000
     29 H5          -1.7750     0.0010     1.2010 ha         1 3VP       0.184000
     30 H8           2.0140    -2.0280    -4.0740 hc         1 3VP       0.066200
     31 H9           3.4390    -1.2270    -3.3870 hc         1 3VP       0.066200
     32 H2           0.6390    -1.2450    -2.2010 hc         1 3VP       0.120700
     33 H10          1.8810    -2.4420    -0.3250 h1         1 3VP       0.110200
     34 H11          1.7350    -3.3690    -1.8320 h1         1 3VP       0.110200
     35 H14          2.4240    -0.6800    -6.1230 h1         1 3VP       0.055200
     36 H15          3.7270     0.2730    -5.3990 h1         1 3VP       0.055200
     37 H23          5.9190    -1.1840     0.1720 hn         1 3VP       0.471133
@<TRIPOS>BOND
     1     1    10 ar
     2     1    11 ar
     3     1    13 1
     4     2     6 1
     5     3     7 1
     6     3    10 1
     7     3    16 1
     8     3    19 1
     9     4     8 ar
    10     4    11 ar
    11     4    12 1
    12     5    14 1
    13     5    15 1
    14     5    20 1
    15     6    18 1
    16     6    19 2
    17     7    14 1
    18     8     9 ar
    19     9    10 ar
    20    15    16 1
    21    16    17 1
    22    17    18 1
    23    20    21 1
    24     2    22 1
    25     2    23 1
    26     5    24 1
    27     7    25 1
    28     7    26 1
    29     8    27 1
    30     9    28 1
    31    11    29 1
    32    15    30 1
    33    15    31 1
    34    16    32 1
    35    17    33 1
    36    17    34 1
    37    20    35 1
    38    20    36 1
    39    37     2 1
@<TRIPOS>SUBSTRUCTURE
     1 3VP         1 TEMP              0 ****  ****    0 ROOT
