@<TRIPOS>MOLECULE
molecule
   23    24     1     0     0
SMALL
bcc


@<TRIPOS>ATOM
      1 CAF          0.0000     0.0000     0.0000 ca         1 3VQ      -0.223300
      2 CAD          1.3830     0.0000     0.0000 ca         1 3VQ      -0.083000
      3 CAC          2.0470     0.0000     1.2200 ca         1 3VQ      -0.213300
      4 CAE          1.3120    -0.0010     2.3920 ca         1 3VQ       0.435200
      5 NAI         -0.0050    -0.0020     2.3650 nb         1 3VQ      -0.664000
      6 CAL         -0.6780     0.0050     1.2200 ca         1 3VQ       0.451800
      7 CAN         -2.1560     0.0040     1.2380 cc         1 3VQ       0.055400
      8 SAJ         -3.1850     0.0110    -0.1880 ss         1 3VQ      -0.140800
      9 CAH         -2.9270    -0.0090     2.3620 cd         1 3VQ      -0.163000
     10 CAG         -4.2770    -0.0060     2.1320 cd         1 3VQ       0.022000
     11 CAM         -4.6310     0.0050     0.8120 cc         1 3VQ      -0.240700
     12 CAK         -6.0080     0.0110     0.3080 c          1 3VQ       0.541700
     13 OAB         -6.9420     0.0040     1.0880 o          1 3VQ      -0.426100
     14 NAA         -6.2380     0.0220    -1.0200 nz         1 3VQ      -0.676400
     15 H1          -0.5490     0.0030    -0.9340 ha         1 3VQ       0.136000
     16 H2           1.9370    -0.0020    -0.9310 ha         1 3VQ       0.157000
     17 H3           3.1290     0.0000     1.2530 ha         1 3VQ       0.160000
     18 H4           1.8270    -0.0040     3.3450 h4         1 3VQ       0.046100
     19 H5          -2.5050    -0.0170     3.3600 ha         1 3VQ       0.208000
     20 H6          -5.0060    -0.0140     2.9330 ha         1 3VQ       0.187000
     21 H7          -5.8290     0.8420    -1.4230 hn         1 3VQ       0.477467
     22 H8          -7.2250     0.0250    -1.1880 hn         1 3VQ       0.477467
     23 HAA3        -5.8310    -0.7920    -1.4360 hn         1 3VQ       0.477467
@<TRIPOS>BOND
     1    13    12 2   
     2    14    12 1   
     3    12    11 1   
     4    11    10 2   
     5    11     8 1   
     6    10     9 1   
     7     8     7 1   
     8     9     7 2   
     9     7     6 1   
    10     6     5 ar  
    11     6     1 ar  
    12     5     4 ar  
    13     1     2 ar  
    14     4     3 ar  
    15     2     3 ar  
    16     1    15 1   
    17     2    16 1   
    18     3    17 1   
    19     4    18 1   
    20     9    19 1   
    21    10    20 1   
    22    14    21 1   
    23    14    22 1   
    24    23    14 1   
@<TRIPOS>SUBSTRUCTURE
     1 3VQ         1 TEMP              0 ****  ****    0 ROOT
