@<TRIPOS>MOLECULE
3VQ
   23    24     1     0     0
SMALL
bcc


@<TRIPOS>ATOM
      1 CAF          0.0000     0.0000     0.0000 ca         1 3VQ      -0.185300
      2 CAD          1.3830     0.0000     0.0000 ca         1 3VQ      -0.059000
      3 CAC          2.0470     0.0000     1.2200 ca         1 3VQ      -0.169300
      4 CAE          1.3120    -0.0010     2.3920 ca         1 3VQ       0.412200
      5 NAI         -0.0050    -0.0020     2.3650 nb         1 3VQ      -0.540000
      6 CAL         -0.6780     0.0050     1.2200 ca         1 3VQ       0.394800
      7 CAN         -2.1560     0.0040     1.2380 cc         1 3VQ       0.119400
      8 SAJ         -3.1850     0.0110    -0.1880 ss         1 3VQ      -0.244800
      9 CAH         -2.9270    -0.0090     2.3620 cd         1 3VQ      -0.154000
     10 CAG         -4.2770    -0.0060     2.1320 cd         1 3VQ       0.090000
     11 CAM         -4.6310     0.0050     0.8120 cc         1 3VQ      -0.245700
     12 CAK         -6.0080     0.0110     0.3080 c          1 3VQ       0.401700
     13 OAB         -6.9420     0.0040     1.0880 o          1 3VQ      -0.445100
     14 NAA         -6.2380     0.0220    -1.0200 nz         1 3VQ       0.205600
     15 H1          -0.5490     0.0030    -0.9340 ha         1 3VQ       0.116000
     16 H2           1.9370    -0.0020    -0.9310 ha         1 3VQ       0.124000
     17 H3           3.1290     0.0000     1.2530 ha         1 3VQ       0.128000
     18 H4           1.8270    -0.0040     3.3450 h4         1 3VQ      -0.002900
     19 H5          -2.5050    -0.0170     3.3600 ha         1 3VQ       0.171000
     20 H6          -5.0060    -0.0140     2.9330 ha         1 3VQ       0.144000
     21 H7          -5.8290     0.8420    -1.4230 hn         1 3VQ       0.246800
     22 H8          -7.2250     0.0250    -1.1880 hn         1 3VQ       0.246800
     23 HAA3        -5.8310    -0.7920    -1.4360 hn         1 3VQ       0.246800
@<TRIPOS>BOND
     1     1     2 ar  
     2     1     6 ar  
     3     1    15 1   
     4     2     3 ar  
     5     2    16 1   
     6     3     4 ar  
     7     3    17 1   
     8     4     5 ar  
     9     4    18 1   
    10     5     6 ar  
    11     6     7 1   
    12     7     8 1   
    13     7     9 2   
    14     8    11 1   
    15     9    10 1   
    16     9    19 1   
    17    10    11 2   
    18    10    20 1   
    19    11    12 1   
    20    12    13 2   
    21    12    14 1   
    22    14    21 1   
    23    14    22 1   
    24    14    23 1   
@<TRIPOS>SUBSTRUCTURE
     1 3VQ         1 TEMP              0 ****  ****    0 ROOT
