@<TRIPOS>MOLECULE
molecule
   30    31     1     0     0
SMALL
bcc


@<TRIPOS>ATOM
      1 CAA          0.0000     0.0000     0.0000 c3         1 3VR       0.146100
      2 NAL          1.4690     0.0000     0.0000 n7         1 3VR      -0.814200
      3 CAI          1.9950     0.0000     1.3710 c3         1 3VR       0.201100
      4 CAM          3.5020    -0.0010     1.3300 ca         1 3VR      -0.074300
      5 CAE          4.1940     1.1960     1.3110 ca         1 3VR      -0.118500
      6 CAG          5.5750     1.1950     1.2730 ca         1 3VR      -0.101000
      7 CAD          4.1930    -1.1980     1.3180 ca         1 3VR      -0.118500
      8 CAF          5.5740    -1.1990     1.2860 ca         1 3VR      -0.101000
      9 CAN          6.2660    -0.0020     1.2550 ca         1 3VR      -0.113300
     10 CAJ          7.7730    -0.0030     1.2200 c3         1 3VR       0.126600
     11 NAO          8.2300    -0.0230    -0.1720 na         1 3VR       0.066400
     12 NAK          7.8640    -0.9610    -1.1460 nc         1 3VR      -0.507800
     13 CAC          8.4680    -0.6470    -2.2630 cd         1 3VR       0.330200
     14 CAB          9.2370     0.5000    -2.0360 cd         1 3VR      -0.354300
     15 CAH          9.0720     0.8630    -0.7430 cc         1 3VR      -0.115300
     16 H1          -0.3610     0.8810     0.5170 h1         1 3VR       0.030700
     17 H2          -0.3610    -0.8880     0.5040 h1         1 3VR       0.030700
     18 H3          -0.3610     0.0070    -1.0210 h1         1 3VR       0.030700
     19 H4           1.8020    -0.8090    -0.4860 hn         1 3VR       0.357800
     20 H6           1.6480    -0.8840     1.8920 h1         1 3VR       0.037700
     21 H7           1.6490     0.8850     1.8910 h1         1 3VR       0.037700
     22 H8           3.6530     2.1340     1.3250 ha         1 3VR       0.133500
     23 H9           6.1170     2.1330     1.2530 ha         1 3VR       0.134000
     24 H10          3.6510    -2.1360     1.3430 ha         1 3VR       0.133500
     25 H11          6.1150    -2.1370     1.2740 ha         1 3VR       0.134000
     26 H12          8.1460    -0.8800     1.7350 h1         1 3VR       0.062700
     27 H13          8.1460     0.8890     1.7100 h1         1 3VR       0.062700
     28 H14          8.3880    -1.1820    -3.2010 h4         1 3VR       0.046100
     29 H15          9.8540     1.0080    -2.7670 ha         1 3VR       0.152000
     30 H16          9.5330     1.7130    -0.2550 h4         1 3VR       0.166000
@<TRIPOS>BOND
     1    13    12 2   
     2    13    14 1   
     3    12    11 1   
     4    14    15 2   
     5    11    15 1   
     6    11    10 1   
     7    10     9 1   
     8     1     2 1   
     9     8     9 ar  
    10     8     7 ar  
    11     9     6 ar  
    12     7     4 ar  
    13     6     5 ar  
    14     2     3 1   
    15     4     5 ar  
    16     4     3 1   
    17     1    16 1   
    18     1    17 1   
    19     1    18 1   
    20     2    19 1   
    21     3    20 1   
    22     3    21 1   
    23     5    22 1   
    24     6    23 1   
    25     7    24 1   
    26     8    25 1   
    27    10    26 1   
    28    10    27 1   
    29    13    28 1   
    30    14    29 1   
    31    15    30 1   
@<TRIPOS>SUBSTRUCTURE
     1 3VR         1 TEMP              0 ****  ****    0 ROOT
