@<TRIPOS>MOLECULE
3VR
   30    31     1     0     0
SMALL
bcc


@<TRIPOS>ATOM
      1 CAA          0.0000     0.0000     0.0000 c3         1 3VR       0.178100
      2 NAL          1.4690     0.0000     0.0000 n7         1 3VR      -0.581200
      3 CAI          1.9950     0.0000     1.3710 c3         1 3VR       0.199100
      4 CAM          3.5020    -0.0010     1.3300 ca         1 3VR      -0.083300
      5 CAE          4.1940     1.1960     1.3110 ca         1 3VR      -0.089500
      6 CAG          5.5750     1.1950     1.2730 ca         1 3VR      -0.072500
      7 CAD          4.1930    -1.1980     1.3180 ca         1 3VR      -0.089500
      8 CAF          5.5740    -1.1990     1.2860 ca         1 3VR      -0.072500
      9 CAN          6.2660    -0.0020     1.2550 ca         1 3VR      -0.127300
     10 CAJ          7.7730    -0.0030     1.2200 c3         1 3VR       0.057600
     11 NAO          8.2300    -0.0230    -0.1720 na         1 3VR       0.487400
     12 NAK          7.8640    -0.9610    -1.1460 nc         1 3VR      -0.647800
     13 CAC          8.4680    -0.6470    -2.2630 cd         1 3VR       0.391200
     14 CAB          9.2370     0.5000    -2.0360 cd         1 3VR      -0.336300
     15 CAH          9.0720     0.8630    -0.7430 cc         1 3VR      -0.250300
     16 H1          -0.3610     0.8810     0.5170 h1         1 3VR      -0.001967
     17 H2          -0.3610    -0.8880     0.5040 h1         1 3VR      -0.001967
     18 H3          -0.3610     0.0070    -1.0210 h1         1 3VR      -0.001967
     19 H4           1.8020    -0.8090    -0.4860 hn         1 3VR       0.255800
     20 H6           1.6480    -0.8840     1.8920 h1         1 3VR       0.009200
     21 H7           1.6490     0.8850     1.8910 h1         1 3VR       0.009200
     22 H8           3.6530     2.1340     1.3250 ha         1 3VR       0.107500
     23 H9           6.1170     2.1330     1.2530 ha         1 3VR       0.108000
     24 H10          3.6510    -2.1360     1.3430 ha         1 3VR       0.107500
     25 H11          6.1150    -2.1370     1.2740 ha         1 3VR       0.108000
     26 H12          8.1460    -0.8800     1.7350 h1         1 3VR       0.030700
     27 H13          8.1460     0.8890     1.7100 h1         1 3VR       0.030700
     28 H14          8.3880    -1.1820    -3.2010 h4         1 3VR       0.002100
     29 H15          9.8540     1.0080    -2.7670 ha         1 3VR       0.132000
     30 H16          9.5330     1.7130    -0.2550 h4         1 3VR       0.142000
@<TRIPOS>BOND
     1     1     2 1   
     2     1    16 1   
     3     1    17 1   
     4     1    18 1   
     5     2     3 1   
     6     2    19 1   
     7     3     4 1   
     8     3    20 1   
     9     3    21 1   
    10     4     5 ar  
    11     4     7 ar  
    12     5     6 ar  
    13     5    22 1   
    14     6     9 ar  
    15     6    23 1   
    16     7     8 ar  
    17     7    24 1   
    18     8     9 ar  
    19     8    25 1   
    20     9    10 1   
    21    10    11 1   
    22    10    26 1   
    23    10    27 1   
    24    11    12 1   
    25    11    15 1   
    26    12    13 2   
    27    13    14 1   
    28    13    28 1   
    29    14    15 2   
    30    14    29 1   
    31    15    30 1   
@<TRIPOS>SUBSTRUCTURE
     1 3VR         1 TEMP              0 ****  ****    0 ROOT
