@<TRIPOS>MOLECULE
3VS
   24    25     1     0     0
SMALL
bcc


@<TRIPOS>ATOM
      1 CAF          0.0000     0.0000     0.0000 ca         1 3VS      -0.123000
      2 CAD          1.3770     0.0000     0.0000 ca         1 3VS       0.004500
      3 CAL          2.0740     0.0000     1.2110 ca         1 3VS      -0.270600
      4 CAK          3.5500     0.0010     1.2150 c          1 3VS       0.358700
      5 OAB          4.1610     0.0030     0.1640 o          1 3VS      -0.433100
      6 NAA          4.2210     0.0010     2.3850 nz         1 3VS       0.200600
      7 CAE          1.3700    -0.0010     2.4180 ca         1 3VS       0.004500
      8 CAG         -0.0070    -0.0010     2.4100 ca         1 3VS      -0.123000
      9 CAM         -0.6970     0.0040     1.2030 ca         1 3VS      -0.047200
     10 NAN         -2.0960     0.0030     1.1990 na         1 3VS       0.371000
     11 CAH         -2.9080     0.0030     0.0930 cc         1 3VS      -0.438600
     12 CAC         -4.1770     0.0020     0.5420 cd         1 3VS       0.375200
     13 NAJ         -4.1470     0.0010     1.8830 nd         1 3VS      -0.565000
     14 CAI         -2.9070    -0.0030     2.2880 cc         1 3VS       0.224400
     15 H1          -0.5410     0.0020    -0.9390 ha         1 3VS       0.143500
     16 H2           1.9190    -0.0030    -0.9380 ha         1 3VS       0.110500
     17 H3           5.2050     0.0020     2.2050 hn         1 3VS       0.246800
     18 H4           3.9780    -0.8170     2.9090 hn         1 3VS       0.246800
     19 H5           1.9070    -0.0030     3.3590 ha         1 3VS       0.110500
     20 H6          -0.5530     0.0000     3.3460 ha         1 3VS       0.143500
     21 H7          -2.5900     0.0030    -0.9420 h4         1 3VS       0.164000
     22 H8          -5.0680     0.0030    -0.0740 h4         1 3VS       0.018100
     23 H9          -2.5790    -0.0040     3.3210 h5         1 3VS       0.030100
     24 HAA3         3.9760     0.8180     2.9100 hn         1 3VS       0.246800
@<TRIPOS>BOND
     1     1     2 ar  
     2     1     9 ar  
     3     1    15 1   
     4     2     3 ar  
     5     2    16 1   
     6     3     4 1   
     7     3     7 ar  
     8     4     5 2   
     9     4     6 1   
    10     6    17 1   
    11     6    18 1   
    12     6    24 1   
    13     7     8 ar  
    14     7    19 1   
    15     8     9 ar  
    16     8    20 1   
    17     9    10 1   
    18    10    11 1   
    19    10    14 1   
    20    11    12 2   
    21    11    21 1   
    22    12    13 1   
    23    12    22 1   
    24    13    14 2   
    25    14    23 1   
@<TRIPOS>SUBSTRUCTURE
     1 3VS         1 TEMP              0 ****  ****    0 ROOT
