@<TRIPOS>MOLECULE
molecule
   29    30     1     0     0
SMALL
bcc


@<TRIPOS>ATOM
      1 CAI          0.0000     0.0000     0.0000 c3         1 3VW      -0.065900
      2 CAG          1.5310     0.0000     0.0000 c3         1 3VW       0.158300
      3 NAK          2.0220     0.0000     1.3840 n7         1 3VW      -0.816200
      4 CAH          1.5880     1.2050     2.1010 c3         1 3VW       0.158300
      5 CAJ          0.0590     1.2420     2.1640 c3         1 3VW      -0.065900
      6 CAN         -0.5060     1.2400     0.7410 c3         1 3VW      -0.167700
      7 CAL         -2.0110     1.2160     0.7980 c          1 3VW       0.582700
      8 OAA         -2.5750     0.7570     1.7680 o          1 3VW      -0.524100
      9 CAM         -2.7990     1.7490    -0.3260 ca         1 3VW      -0.177600
     10 CAE         -4.1970     1.7270    -0.2780 ca         1 3VW      -0.080500
     11 CAC         -4.9270     2.2280    -1.3340 ca         1 3VW      -0.143500
     12 CAB         -4.2800     2.7510    -2.4410 ca         1 3VW      -0.100000
     13 CAD         -2.8980     2.7760    -2.4970 ca         1 3VW      -0.143500
     14 CAF         -2.1530     2.2840    -1.4450 ca         1 3VW      -0.080500
     15 H1          -0.3600    -0.8910     0.5000 hc         1 3VW       0.059700
     16 H2          -0.3600     0.0180    -1.0210 hc         1 3VW       0.059700
     17 H3           1.8900     0.8860    -0.5090 h1         1 3VW       0.031700
     18 H4           1.8900    -0.8860    -0.5090 h1         1 3VW       0.031700
     19 H5           3.0220    -0.0460     1.3830 hn         1 3VW       0.353800
     20 H7           1.9470     2.0830     1.5780 h1         1 3VW       0.031700
     21 H8           1.9890     1.1890     3.1070 h1         1 3VW       0.031700
     22 H9          -0.3000     0.3690     2.6960 hc         1 3VW       0.059700
     23 H10         -0.2580     2.1410     2.6780 hc         1 3VW       0.059700
     24 H11         -0.1740     2.1310     0.2210 hc         1 3VW       0.060700
     25 H12         -4.7040     1.3180     0.5880 ha         1 3VW       0.144000
     26 H13         -6.0100     2.2120    -1.2980 ha         1 3VW       0.134000
     27 H14         -4.8590     3.1410    -3.2690 ha         1 3VW       0.131000
     28 H15         -2.3990     3.1880    -3.3650 ha         1 3VW       0.134000
     29 H16         -1.0710     2.3040    -1.4900 ha         1 3VW       0.144000
@<TRIPOS>BOND
     1    13    14 ar  
     2    13    12 ar  
     3     4     5 1   
     4     4     3 1   
     5    14     9 ar  
     6     5     6 1   
     7     6     7 1   
     8     6     1 1   
     9     9     7 1   
    10     9    10 ar  
    11    12    11 ar  
    12     7     8 2   
    13    11    10 ar  
    14     3     2 1   
    15     2     1 1   
    16     1    15 1   
    17     1    16 1   
    18     2    17 1   
    19     2    18 1   
    20     3    19 1   
    21     4    20 1   
    22     4    21 1   
    23     5    22 1   
    24     5    23 1   
    25     6    24 1   
    26    10    25 1   
    27    11    26 1   
    28    12    27 1   
    29    13    28 1   
    30    14    29 1   
@<TRIPOS>SUBSTRUCTURE
     1 3VW         1 TEMP              0 ****  ****    0 ROOT
