@<TRIPOS>MOLECULE
3VX
   23    24     1     0     0
SMALL
bcc


@<TRIPOS>ATOM
      1 CAA          0.0000     0.0000     0.0000 c3         1 3VX      -0.068100
      2 CAJ          1.5070     0.0000     0.0000 c          1 3VX       0.560100
      3 OAB          2.1130     0.0000     1.0500 o          1 3VX      -0.628100
      4 NAI          2.1800    -0.0010    -1.1680 ns         1 3VX      -0.041100
      5 CAL          3.5710     0.0960    -1.1700 ca         1 3VX      -0.070400
      6 CAF          4.3140    -0.5160    -0.1530 ca         1 3VX      -0.066000
      7 CAM          5.6960    -0.4210    -0.1550 ca         1 3VX      -0.070800
      8 CAH          6.7340    -0.9450     0.7590 cc         1 3VX      -0.001200
      9 CAG          7.9490    -0.5810     0.3260 cd         1 3VX      -0.230200
     10 CAK          7.7970     0.2130    -0.9080 c          1 3VX       0.622900
     11 OAC          8.6900     0.7050    -1.5680 o          1 3VX      -0.521100
     12 CAN          6.3400     0.2940    -1.1840 ca         1 3VX      -0.212600
     13 CAE          5.5980     0.8960    -2.1850 ca         1 3VX      -0.001000
     14 CAD          4.2130     0.7910    -2.1810 ca         1 3VX      -0.145000
     15 H1          -0.3610     0.9630    -0.3400 hc         1 3VX       0.025367
     16 H2          -0.3610    -0.7760    -0.6640 hc         1 3VX       0.025367
     17 H3          -0.3610    -0.1870     1.0040 hc         1 3VX       0.025367
     18 H4           1.6860    -0.1120    -2.0310 hn         1 3VX       0.170500
     19 H5           3.8150    -1.1320     0.5860 ha         1 3VX       0.142000
     20 H6           6.5960    -1.9050     1.2410 ha         1 3VX       0.123000
     21 H7           8.7250    -0.3310     1.0390 ha         1 3VX       0.139000
     22 H8           6.0980     1.4410    -2.9770 ha         1 3VX       0.112000
     23 H9           3.6330     1.2500    -2.9730 ha         1 3VX       0.109000
@<TRIPOS>BOND
     1     1     2 1   
     2     1    15 1   
     3     1    16 1   
     4     1    17 1   
     5     2     3 2   
     6     2     4 1   
     7     4     5 1   
     8     4    18 1   
     9     5     6 ar  
    10     5    14 ar  
    11     6     7 ar  
    12     6    19 1   
    13     7     8 1   
    14     7    12 ar  
    15     8     9 2   
    16     8    20 1   
    17     9    10 1   
    18     9    21 1   
    19    10    11 2   
    20    10    12 1   
    21    12    13 ar  
    22    13    14 ar  
    23    13    22 1   
    24    14    23 1   
@<TRIPOS>SUBSTRUCTURE
     1 3VX         1 TEMP              0 ****  ****    0 ROOT
