@<TRIPOS>MOLECULE
molecule
   23    24     1     0     0
SMALL
bcc


@<TRIPOS>ATOM
      1 CAA          0.0000     0.0000     0.0000 c3         1 3VX      -0.170100
      2 CAJ          1.5070     0.0000     0.0000 c          1 3VX       0.657100
      3 OAB          2.1130     0.0000     1.0500 o          1 3VX      -0.587100
      4 NAI          2.1800    -0.0010    -1.1680 ns         1 3VX      -0.483100
      5 CAL          3.5710     0.0960    -1.1700 ca         1 3VX       0.076600
      6 CAF          4.3140    -0.5160    -0.1530 ca         1 3VX      -0.098000
      7 CAM          5.6960    -0.4210    -0.1550 ca         1 3VX      -0.067800
      8 CAH          6.7340    -0.9450     0.7590 cc         1 3VX      -0.041200
      9 CAG          7.9490    -0.5810     0.3260 cd         1 3VX      -0.242200
     10 CAK          7.7970     0.2130    -0.9080 c          1 3VX       0.566900
     11 OAC          8.6900     0.7050    -1.5680 o          1 3VX      -0.491100
     12 CAN          6.3400     0.2940    -1.1840 ca         1 3VX      -0.204600
     13 CAE          5.5980     0.8960    -2.1850 ca         1 3VX      -0.041000
     14 CAD          4.2130     0.7910    -2.1810 ca         1 3VX      -0.171000
     15 H1          -0.3610     0.9630    -0.3400 hc         1 3VX       0.065033
     16 H2          -0.3610    -0.7760    -0.6640 hc         1 3VX       0.065033
     17 H3          -0.3610    -0.1870     1.0040 hc         1 3VX       0.065033
     18 H4           1.6860    -0.1120    -2.0310 hn         1 3VX       0.327500
     19 H5           3.8150    -1.1320     0.5860 ha         1 3VX       0.166000
     20 H6           6.5960    -1.9050     1.2410 ha         1 3VX       0.156000
     21 H7           8.7250    -0.3310     1.0390 ha         1 3VX       0.168000
     22 H8           6.0980     1.4410    -2.9770 ha         1 3VX       0.146000
     23 H9           3.6330     1.2500    -2.9730 ha         1 3VX       0.136000
@<TRIPOS>BOND
     1     3     2 2   
     2     1     2 1   
     3     2     4 1   
     4     4     5 1   
     5     5    14 ar  
     6     5     6 ar  
     7    14    13 ar  
     8     6     7 ar  
     9    13    12 ar  
    10     7    12 ar  
    11     7     8 1   
    12    12    10 1   
    13     8     9 2   
    14    10    11 2   
    15    10     9 1   
    16     1    15 1   
    17     1    16 1   
    18     1    17 1   
    19     4    18 1   
    20     6    19 1   
    21     8    20 1   
    22     9    21 1   
    23    13    22 1   
    24    14    23 1   
@<TRIPOS>SUBSTRUCTURE
     1 3VX         1 TEMP              0 ****  ****    0 ROOT
