@<TRIPOS>MOLECULE
molecule
   24    25     1     0     0
SMALL
bcc


@<TRIPOS>ATOM
      1 C8           0.0000     0.0000     0.0000 cc         1 3VY      -0.133100
      2 C4           0.6800    -0.0010     3.5560 ca         1 3VY      -0.160000
      3 C5           0.5910    -0.0000     2.1680 ca         1 3VY      -0.037200
      4 C2           3.0780    -0.0100     3.4010 ca         1 3VY      -0.185000
      5 C9           1.3420     0.0000     0.0000 cd         1 3VY      -0.058400
      6 C11          2.2390     0.0030    -1.2110 c3         1 3VY      -0.124200
      7 C12          2.6390    -1.4120    -1.5420 c          1 3VY       0.890600
      8 C3           1.9180    -0.0110     4.1620 ca         1 3VY      -0.125000
      9 O14          3.4410    -1.6550    -2.5900 o          1 3VY      -0.846300
     10 O13          2.2370    -2.3280    -0.8640 o          1 3VY      -0.846300
     11 C6           1.7700     0.0000     1.4010 ca         1 3VY      -0.077800
     12 C1           3.0130    -0.0040     2.0360 ca         1 3VY      -0.052000
     13 N7          -0.4670     0.0050     1.2860 na         1 3VY      -0.086400
     14 H1          -0.6220    -0.0030    -0.8870 h4         1 3VY       0.158000
     15 H2          -0.2200    -0.0010     4.1590 ha         1 3VY       0.105000
     16 H3           4.0430    -0.0180     3.8930 ha         1 3VY       0.111000
     17 H4          -2.0950     0.8860     2.2620 h1         1 3VY       0.034033
     18 H5          -2.0990    -0.8830     2.2490 h1         1 3VY       0.034033
     19 H6          -2.4960     0.0130     0.7770 h1         1 3VY       0.034033
     20 H7           1.7090     0.4350    -2.0510 hc         1 3VY       0.036700
     21 H8           3.1250     0.5890    -1.0020 hc         1 3VY       0.036700
     22 H9           1.9860    -0.0160     5.2430 ha         1 3VY       0.107000
     23 H11          3.9230    -0.0030     1.4490 ha         1 3VY       0.138000
     24 C10         -1.8820     0.0050     1.6680 c3         1 3VY       0.050600
@<TRIPOS>BOND
     1    24    13 1   
     2    13     1 1   
     3    13     3 1   
     4     1     5 2   
     5     3     2 ar  
     6     3    11 ar  
     7     2     8 ar  
     8     5    11 1   
     9     5     6 1   
    10    11    12 ar  
    11     6     7 1   
    12     8     4 ar  
    13    10     7 1   
    14    12     4 ar  
    15     7     9 1   
    16     1    14 1   
    17     2    15 1   
    18     4    16 1   
    19    24    17 1   
    20    24    18 1   
    21    24    19 1   
    22     6    20 1   
    23     6    21 1   
    24     8    22 1   
    25    12    23 1   
@<TRIPOS>SUBSTRUCTURE
     1 3VY         1 TEMP              0 ****  ****    0 ROOT
