@<TRIPOS>MOLECULE
3VZ
   57    60     1     0     0
SMALL
bcc


@<TRIPOS>ATOM
      1 C1           0.0000     0.0000     0.0000 ca         1 3VZ      -0.012000
      2 C2           1.3970     0.0000     0.0000 ca         1 3VZ      -0.071800
      3 C3           2.1040     0.0000     1.2180 ca         1 3VZ      -0.207200
      4 C4           1.4010    -0.0000     2.4160 ca         1 3VZ      -0.116000
      5 C5           0.0120     0.0000     2.3980 cp         1 3VZ      -0.047000
      6 C14          3.6100    -0.0020    -0.4500 cc         1 3VZ      -0.288100
      7 C15          2.4120    -0.0010    -1.0560 cd         1 3VZ      -0.033400
      8 C20         -0.7420     0.0010     3.6760 cp         1 3VZ       0.017000
      9 C22         -2.1340     0.0020     3.6640 ca         1 3VZ      -0.125500
     10 C23         -2.8370     0.0020     4.8600 ca         1 3VZ       0.029100
     11 C24         -2.1520     0.0020     6.0680 ca         1 3VZ      -0.149000
     12 C25         -0.7640     0.0020     6.0830 ca         1 3VZ       0.029100
     13 O60          2.0070     2.3300    -2.2290 o          1 3VZ      -0.897300
     14 C59          1.9540     1.4140    -3.0160 c          1 3VZ       0.977600
     15 O64          1.7110     1.6590    -4.3140 o          1 3VZ      -0.897300
     16 C58          2.1590    -0.0010    -2.5420 c3         1 3VZ      -0.060200
     17 N13          3.4460    -0.0010     0.9080 na         1 3VZ       0.380600
     18 C37          4.5360    -0.0010     1.8880 c3         1 3VZ       0.026600
     19 C38          4.8260    -1.4170     2.3160 ca         1 3VZ      -0.117300
     20 C41          5.7570    -2.1700     1.6260 ca         1 3VZ      -0.080500
     21 C42          6.0220    -3.4690     2.0190 ca         1 3VZ      -0.102500
     22 C43          5.3590    -4.0120     3.1030 ca         1 3VZ      -0.089300
     23 C52          5.6490    -5.4280     3.5310 c3         1 3VZ       0.005600
     24 C54          6.1670    -5.4290     4.9710 c3         1 3VZ       0.004900
     25 C56          4.3660    -6.2580     3.4510 c3         1 3VZ       0.004900
     26 C44          4.4300    -3.2590     3.7930 ca         1 3VZ      -0.102500
     27 C45          4.1660    -1.9590     3.4030 ca         1 3VZ      -0.080500
     28 C6          -0.6800    -0.0000     1.1820 ca         1 3VZ      -0.157000
     29 N35         -4.2340     0.0020     4.8500 nv         1 3VZ      -0.562200
     30 N33         -0.0780     0.0010     7.3000 nv         1 3VZ      -0.562200
     31 C26         -0.0580    -0.0050     4.8890 ca         1 3VZ      -0.125500
     32 H1          -0.5420    -0.0010    -0.9380 ha         1 3VZ       0.111000
     33 H2           1.9310     0.1110     3.3540 ha         1 3VZ       0.099000
     34 H3           4.5660    -0.0020    -0.9610 h4         1 3VZ       0.139000
     35 H4          -2.6680     0.0020     2.7210 ha         1 3VZ       0.119000
     36 H5          -2.7020     0.0020     7.0020 ha         1 3VZ       0.104000
     37 H7           1.2740    -0.5860    -2.7580 hc         1 3VZ       0.009700
     38 H8           3.0110    -0.4330    -3.0530 hc         1 3VZ       0.009700
     39 H9           5.4240     0.4300     1.4410 h1         1 3VZ       0.029200
     40 H10          4.2460     0.5850     2.7510 h1         1 3VZ       0.029200
     41 H11          6.2760    -1.7440     0.7760 ha         1 3VZ       0.110000
     42 H12          6.7520    -4.0600     1.4780 ha         1 3VZ       0.104000
     43 H13          6.3980    -5.8570     2.8770 hc         1 3VZ       0.024700
     44 H14          6.5600    -6.4100     5.2120 hc         1 3VZ       0.003533
     45 H15          6.9530    -4.6910     5.0730 hc         1 3VZ       0.003533
     46 H16          5.3560    -5.1890     5.6470 hc         1 3VZ       0.003533
     47 H17          3.6860    -5.9490     4.2350 hc         1 3VZ       0.003533
     48 H18          3.8970    -6.1050     2.4860 hc         1 3VZ       0.003533
     49 H19          4.6060    -7.3070     3.5730 hc         1 3VZ       0.003533
     50 H20          3.9110    -3.6840     4.6440 ha         1 3VZ       0.104000
     51 H21          3.4380    -1.3670     3.9450 ha         1 3VZ       0.110000
     52 H22         -1.7640     0.0000     1.1790 ha         1 3VZ       0.102000
     53 H23         -4.7340     0.8690     4.8480 hn         1 3VZ       0.266300
     54 H24         -4.7350    -0.8640     4.8510 hn         1 3VZ       0.266300
     55 H25          0.1670     0.8680     7.7360 hn         1 3VZ       0.266300
     56 H26          0.1550    -0.8650     7.7430 hn         1 3VZ       0.266300
     57 H27          1.0260    -0.0050     4.9000 ha         1 3VZ       0.119000
@<TRIPOS>BOND
     1     1     2 ar  
     2     1    28 ar  
     3     1    32 1   
     4     2     3 ar  
     5     2     7 1   
     6     3     4 ar  
     7     3    17 1   
     8     4     5 ar  
     9     4    33 1   
    10     5     8 1   
    11     5    28 ar  
    12     6     7 2   
    13     6    17 1   
    14     6    34 1   
    15     7    16 1   
    16     8     9 ar  
    17     8    31 ar  
    18     9    10 ar  
    19     9    35 1   
    20    10    11 ar  
    21    10    29 1   
    22    11    12 ar  
    23    11    36 1   
    24    12    30 1   
    25    12    31 ar  
    26    13    14 1   
    27    14    15 1   
    28    14    16 1   
    29    16    37 1   
    30    16    38 1   
    31    17    18 1   
    32    18    19 1   
    33    18    39 1   
    34    18    40 1   
    35    19    20 ar  
    36    19    27 ar  
    37    20    21 ar  
    38    20    41 1   
    39    21    22 ar  
    40    21    42 1   
    41    22    23 1   
    42    22    26 ar  
    43    23    24 1   
    44    23    25 1   
    45    23    43 1   
    46    24    44 1   
    47    24    45 1   
    48    24    46 1   
    49    25    47 1   
    50    25    48 1   
    51    25    49 1   
    52    26    27 ar  
    53    26    50 1   
    54    27    51 1   
    55    28    52 1   
    56    29    53 1   
    57    29    54 1   
    58    30    55 1   
    59    30    56 1   
    60    31    57 1   
@<TRIPOS>SUBSTRUCTURE
     1 3VZ         1 TEMP              0 ****  ****    0 ROOT
