@<TRIPOS>MOLECULE
molecule
   28    29     1     0     0
SMALL
bcc


@<TRIPOS>ATOM
      1 CAH          0.0000     0.0000     0.0000 cc         1 3W1      -0.098300
      2 CAL          1.3530     0.0000     0.0000 cc         1 3W1      -0.185900
      3 Cl1          2.3750     0.0010    -1.4030 cl         1 3W1      -0.060400
      4 CAG          1.7830     0.0000     1.3310 cc         1 3W1       0.364200
      5 NAK          0.7270     0.0000     2.1030 nd         1 3W1      -0.515800
      6 NAO         -0.4120    -0.0010     1.2860 na         1 3W1       0.050400
      7 CAJ         -1.8030     0.0040     1.7460 c3         1 3W1       0.124600
      8 CAN         -2.0280    -1.1600     2.6760 ca         1 3W1      -0.056300
      9 CAE         -1.8210    -1.0090     4.0350 ca         1 3W1      -0.088000
     10 CAC         -2.0270    -2.0770     4.8880 ca         1 3W1      -0.102000
     11 CAM         -2.4410    -3.2960     4.3830 ca         1 3W1      -0.192300
     12 CAI         -2.6660    -4.4600     5.3130 c3         1 3W1       0.159100
     13 NAA         -4.0600    -4.4560     5.7740 nz         1 3W1      -0.810600
     14 CAD         -2.6480    -3.4460     3.0240 ca         1 3W1      -0.102000
     15 CAF         -2.4470    -2.3770     2.1720 ca         1 3W1      -0.088000
     16 H1          -0.6390    -0.0000    -0.8750 h4         1 3W1       0.184000
     17 H2           2.8130     0.0000     1.6660 h4         1 3W1       0.067100
     18 H3          -2.0060     0.9300     2.2700 h1         1 3W1       0.078200
     19 H4          -2.4650    -0.0810     0.8930 h1         1 3W1       0.078200
     20 H5          -1.4970    -0.0540     4.4310 ha         1 3W1       0.163500
     21 H6          -1.8660    -1.9590     5.9530 ha         1 3W1       0.138000
     22 H7          -2.4620    -5.3860     4.7880 hx         1 3W1       0.114200
     23 H8          -2.0030    -4.3750     6.1650 hx         1 3W1       0.114200
     24 H9          -4.2100    -5.2290     6.3920 hn         1 3W1       0.454800
     25 H10         -4.2490    -3.6000     6.2580 hn         1 3W1       0.454800
     26 H12         -2.9750    -4.4000     2.6280 ha         1 3W1       0.138000
     27 H13         -2.6090    -2.4950     1.1080 ha         1 3W1       0.163500
     28 HAA3        -4.6720    -4.5520     4.9880 hn         1 3W1       0.454800
@<TRIPOS>BOND
     1     3     2 1   
     2     4     2 1   
     3     4     5 2   
     4     2     1 2   
     5     5     6 1   
     6     1     6 1   
     7     6     7 1   
     8    15     8 ar  
     9    15    14 ar  
    10     7     8 1   
    11     8     9 ar  
    12    14    11 ar  
    13     9    10 ar  
    14    11    10 ar  
    15    11    12 1   
    16    13    12 1   
    17     1    16 1   
    18     4    17 1   
    19     7    18 1   
    20     7    19 1   
    21     9    20 1   
    22    10    21 1   
    23    12    22 1   
    24    12    23 1   
    25    13    24 1   
    26    13    25 1   
    27    14    26 1   
    28    15    27 1   
    29    28    13 1   
@<TRIPOS>SUBSTRUCTURE
     1 3W1         1 TEMP              0 ****  ****    0 ROOT
