@<TRIPOS>MOLECULE
3W2
   55    59     1     0     0
SMALL
bcc


@<TRIPOS>ATOM
      1 C6           0.0000     0.0000     0.0000 c3         1 3W2      -0.059900
      2 C9           3.5580     1.2530    -0.6880 c          1 3W2       0.561600
      3 C8           2.0330     1.2610    -0.7130 c3         1 3W2      -0.145400
      4 C18         -4.1500    -2.3280     1.9470 ca         1 3W2      -0.209000
      5 C16         -2.9150    -0.6380     3.8090 ca         1 3W2      -0.034000
      6 C19         -5.0600    -3.0130     1.1580 cc         1 3W2      -0.271100
      7 C26          4.1580    -2.2660    -1.1730 cc         1 3W2      -0.357300
      8 C1           1.5310     0.0000     0.0000 c3         1 3W2       0.167800
      9 C2           2.0400     0.0000     1.4430 c3         1 3W2      -0.059900
     10 C3           1.5570    -1.2690     2.1520 c3         1 3W2       0.036000
     11 N4           0.0940    -1.3500     2.0290 n          1 3W2      -0.150800
     12 C5          -0.5070    -1.2690     0.6910 c3         1 3W2       0.036000
     13 O7           1.9990    -1.1820    -0.6630 os         1 3W2      -0.271900
     14 C11         -0.6800    -1.4970     3.1230 c          1 3W2       0.615700
     15 C12         -2.1490    -1.4940     2.9920 ca         1 3W2      -0.176600
     16 O13         -0.1670    -1.6330     4.2170 o          1 3W2      -0.645100
     17 C14         -2.7500    -2.3320     2.0710 ca         1 3W2      -0.010000
     18 C15         -4.2640    -0.6040     3.7330 ca         1 3W2      -0.089000
     19 C17         -4.9400    -1.4340     2.8100 ca         1 3W2       0.012000
     20 N20         -6.2870    -2.5940     1.4880 na         1 3W2       0.561800
     21 N21         -6.2070    -1.6290     2.4990 nc         1 3W2      -0.444400
     22 C22          3.3310    -1.2420    -0.9130 cd         1 3W2      -0.009200
     23 C23          4.1550    -0.0730    -0.9330 cd         1 3W2       0.138800
     24 N24          5.3730    -0.4560    -1.1910 nc         1 3W2      -0.533800
     25 N25          5.4050    -1.7380    -1.3390 na         1 3W2       0.585400
     26 C27          6.6100    -2.5170    -1.6390 c3         1 3W2      -0.077300
     27 C28          6.6550    -3.7550    -0.7410 c3         1 3W2      -0.006100
     28 C29          6.5840    -2.9510    -3.1060 c3         1 3W2      -0.006100
     29 C30          7.8490    -1.6570    -1.3830 c3         1 3W2      -0.006100
     30 H1          -0.3600     0.0220    -1.0210 hc         1 3W2       0.037200
     31 H2          -0.3600     0.8700     0.5350 hc         1 3W2       0.037200
     32 H3           1.6860     1.2600    -1.7390 hc         1 3W2       0.050200
     33 H4           1.6660     2.1400    -0.1980 hc         1 3W2       0.050200
     34 H5          -2.4100     0.0080     4.5170 ha         1 3W2       0.115000
     35 H6          -4.8210    -3.7550     0.4060 h4         1 3W2       0.148000
     36 H7           3.8870    -3.3120    -1.2410 h4         1 3W2       0.163000
     37 H8           3.1230     0.0220     1.4430 hc         1 3W2       0.037200
     38 H9           1.6550     0.8700     1.9610 hc         1 3W2       0.037200
     39 H10          2.0080    -2.1380     1.6870 h1         1 3W2       0.041950
     40 H11          1.8310    -1.2260     3.1990 h1         1 3W2       0.041950
     41 H12         -1.5860    -1.2270     0.7810 h1         1 3W2       0.041950
     42 H13         -0.2190    -2.1380     0.1110 h1         1 3W2       0.041950
     43 H14         -2.1480    -2.9840     1.4490 ha         1 3W2       0.109000
     44 H15         -4.8270     0.0640     4.3740 ha         1 3W2       0.116000
     45 H16         -7.1370    -2.9220     1.0730 hn         1 3W2       0.140700
     46 H17          6.4740    -3.4630     0.2860 hc         1 3W2       0.019811
     47 H18          5.8920    -4.4570    -1.0560 hc         1 3W2       0.019811
     48 H19          7.6290    -4.2220    -0.8180 hc         1 3W2       0.019811
     49 H20          7.5000    -3.4770    -3.3430 hc         1 3W2       0.019811
     50 H21          5.7370    -3.6060    -3.2730 hc         1 3W2       0.019811
     51 H22          6.4950    -2.0770    -3.7400 hc         1 3W2       0.019811
     52 H23          7.8640    -1.3430    -0.3460 hc         1 3W2       0.019811
     53 H24          7.8220    -0.7840    -2.0240 hc         1 3W2       0.019811
     54 H25          8.7400    -2.2340    -1.5980 hc         1 3W2       0.019811
     55 O10          4.2210     2.2480    -0.4830 o          1 3W2      -0.534100
@<TRIPOS>BOND
     1     1     8 1   
     2     1    12 1   
     3     1    30 1   
     4     1    31 1   
     5     2     3 1   
     6     2    23 1   
     7     2    55 2   
     8     3     8 1   
     9     3    32 1   
    10     3    33 1   
    11     4     6 2   
    12     4    17 ar  
    13     4    19 ar  
    14     5    15 ar  
    15     5    18 ar  
    16     5    34 1   
    17     6    20 1   
    18     6    35 1   
    19     7    22 2   
    20     7    25 1   
    21     7    36 1   
    22     8     9 1   
    23     8    13 1   
    24     9    10 1   
    25     9    37 1   
    26     9    38 1   
    27    10    11 1   
    28    10    39 1   
    29    10    40 1   
    30    11    12 1   
    31    11    14 1   
    32    12    41 1   
    33    12    42 1   
    34    13    22 1   
    35    14    15 1   
    36    14    16 2   
    37    15    17 ar  
    38    17    43 1   
    39    18    19 ar  
    40    18    44 1   
    41    19    21 2   
    42    20    21 1   
    43    20    45 1   
    44    22    23 1   
    45    23    24 2   
    46    24    25 1   
    47    25    26 1   
    48    26    27 1   
    49    26    28 1   
    50    26    29 1   
    51    27    46 1   
    52    27    47 1   
    53    27    48 1   
    54    28    49 1   
    55    28    50 1   
    56    28    51 1   
    57    29    52 1   
    58    29    53 1   
    59    29    54 1   
@<TRIPOS>SUBSTRUCTURE
     1 3W2         1 TEMP              0 ****  ****    0 ROOT
