@<TRIPOS>MOLECULE
molecule
   26    26     1     0     0
SMALL
bcc


@<TRIPOS>ATOM
      1 CAC          0.0000     0.0000     0.0000 ca         1 3W3      -0.198000
      2 CAB          1.3810     0.0000     0.0000 ca         1 3W3       0.009000
      3 CAA          2.0740     0.0000     1.1960 ca         1 3W3      -0.387500
      4 SAG          3.8360     0.0010     1.1930 sy         1 3W3       1.226200
      5 OAL          4.2390    -0.5450     2.4420 o          1 3W3      -0.522800
      6 OAM          4.2340    -0.5430    -0.0580 o          1 3W3      -0.522800
      7 NAN          4.3250     1.5830     1.1930 nz         1 3W3      -0.805500
      8 CAF          1.3860    -0.0000     2.3960 ca         1 3W3       0.009000
      9 CAE          0.0050    -0.0010     2.4010 ca         1 3W3      -0.198000
     10 CAD         -0.6930     0.0050     1.2030 ca         1 3W3       0.246100
     11 OAH         -2.0520     0.0050     1.2050 os         1 3W3      -0.291900
     12 CAI         -2.7030     0.0110    -0.0670 c3         1 3W3       0.164600
     13 CAJ         -4.1970     0.0100     0.1340 c2         1 3W3      -0.193200
     14 CAK         -4.9530     0.8160    -0.5700 c2         1 3W3      -0.172000
     15 HAC         -0.5420    -0.0510    -0.9370 ha         1 3W3       0.173500
     16 HAB          1.9220    -0.0100    -0.9380 ha         1 3W3       0.157000
     17 HAO          3.9720     2.0410     0.3760 hn         1 3W3       0.490800
     18 HAN          5.3250     1.6220     1.1910 hn         1 3W3       0.490800
     19 HAF          1.9300    -0.0110     3.3320 ha         1 3W3       0.157000
     20 HAE         -0.5340    -0.0270     3.3410 ha         1 3W3       0.173500
     21 HAI         -2.4130     0.8990    -0.6170 h1         1 3W3       0.050700
     22 HAJ         -2.4130    -0.8700    -0.6260 h1         1 3W3       0.050700
     23 H1          -4.6460    -0.6570     0.8600 ha         1 3W3       0.151000
     24 HAL         -6.0260     0.8150    -0.4270 ha         1 3W3       0.126500
     25 H2          -4.5040     1.4830    -1.2960 ha         1 3W3       0.126500
     26 HAN3         3.9650     2.0430     2.0050 hn         1 3W3       0.490800
@<TRIPOS>BOND
     1    13    12 1   
     2    13    14 2   
     3    12    11 1   
     4    11    10 1   
     5    10     9 ar  
     6    10     1 ar  
     7     9     8 ar  
     8     1     2 ar  
     9     8     3 ar  
    10     2     3 ar  
    11     3     4 1   
    12     7     4 1   
    13     6     4 2   
    14     4     5 2   
    15     1    15 1   
    16     2    16 1   
    17     7    17 1   
    18     7    18 1   
    19     8    19 1   
    20     9    20 1   
    21    12    21 1   
    22    12    22 1   
    23    13    23 1   
    24    14    24 1   
    25    14    25 1   
    26    26     7 1   
@<TRIPOS>SUBSTRUCTURE
     1 3W3         1 TEMP              0 ****  ****    0 ROOT
