@<TRIPOS>MOLECULE
molecule
   65    69     1     0     0
SMALL
bcc


@<TRIPOS>ATOM
      1 C1           0.0000     0.0000     0.0000 ca         1 3W4      -0.090000
      2 C2           1.3790     0.0000     0.0000 ca         1 3W4      -0.166500
      3 C3           2.0750     0.0000     1.2020 ca         1 3W4       0.106100
      4 C4           1.3860    -0.0010     2.4080 ca         1 3W4      -0.166500
      5 C5           0.0070    -0.0020     2.4160 ca         1 3W4      -0.090000
      6 C6          -0.6960    -0.0010     1.2100 ca         1 3W4       0.037000
      7 C7          -2.1280    -0.0010     1.2150 cg         1 3W4      -0.167000
      8 C8          -3.3010     0.0180     1.2270 c1         1 3W4      -0.259100
      9 C9          -5.0960     0.1020     1.3110 c3         1 3W4       0.306900
     10 C10         -5.3450     1.3000     2.2570 c3         1 3W4       0.205800
     11 N1          -6.2680     0.2230     3.3470 n3         1 3W4      -0.823600
     12 C11         -5.6380    -0.9580     3.9780 c3         1 3W4       0.211800
     13 C12         -5.0720    -1.7940     3.1150 c3         1 3W4      -0.137900
     14 C13         -5.3210    -1.3950     1.5490 c3         1 3W4      -0.148700
     15 C14         -7.2120    -1.1700     1.5020 c3         1 3W4      -0.137900
     16 C15         -7.4790     0.1530     2.5680 c3         1 3W4       0.211800
     17 O1          -5.2970     0.5580    -0.0100 oh         1 3W4      -0.588800
     18 O2           3.2410    -0.5010     0.9370 os         1 3W4      -0.317200
     19 C16          3.3930    -1.8170     0.6330 ca         1 3W4       0.191100
     20 C17          3.9630    -2.6500     1.7570 ca         1 3W4      -0.164500
     21 C18          4.0600    -3.9200     1.6470 ca         1 3W4      -0.107500
     22 C19          3.5940    -4.5420     0.3010 ca         1 3W4      -0.067600
     23 C20          3.0050    -3.8540    -0.7720 ca         1 3W4      -0.107500
     24 C21          2.8910    -2.1700    -0.4760 ca         1 3W4      -0.164500
     25 C22          3.4480    -6.1380     0.1430 c          1 3W4       0.630700
     26 O3           3.6710    -6.8250     1.3070 o          1 3W4      -0.677100
     27 N2           2.8530    -6.7220    -0.8820 ns         1 3W4      -0.487900
     28 C23          2.6280    -7.9900    -1.1430 c3         1 3W4       0.084700
     29 C24          0.8100    -8.0820    -1.6820 c3         1 3W4      -0.104400
     30 C25         -0.2320    -7.4880    -0.5070 c3         1 3W4      -0.081400
     31 C26         -0.1370    -7.8480     0.6300 c3         1 3W4      -0.339600
     32 S1           1.3030    -7.7560     1.3530 s6         1 3W4       1.312000
     33 O4           1.5670    -6.5420     1.6370 o          1 3W4      -0.639800
     34 O5           1.2690    -8.7730     2.5680 o          1 3W4      -0.639800
     35 C27          2.6190    -8.5050     0.3900 c3         1 3W4      -0.258600
     36 H1          -0.6390     0.1470    -0.8630 ha         1 3W4       0.139000
     37 H2           2.1810     0.2690    -0.6770 ha         1 3W4       0.151500
     38 H4           2.0590    -0.3110     3.1980 ha         1 3W4       0.151500
     39 H5          -0.3930    -0.2630     3.3880 ha         1 3W4       0.139000
     40 H101        -6.2150     1.8700     1.9540 h1         1 3W4       0.121200
     41 H102        -4.4770     1.4190     2.8930 h1         1 3W4       0.121200
     42 H13         -4.9380    -2.1890     0.9200 hc         1 3W4       0.104700
     43 HA          -4.7360     0.0290    -0.5530 ho         1 3W4       0.425000
     44 H111        -6.4160    -1.0870     4.7210 h1         1 3W4       0.071450
     45 H112        -4.9080    -0.3490     4.4970 h1         1 3W4       0.071450
     46 H151        -8.1780    -0.4690     3.1130 h1         1 3W4       0.071450
     47 H152        -7.9230     0.9160     1.9400 h1         1 3W4       0.071450
     48 H121        -5.5450    -2.7680     3.1490 hc         1 3W4       0.049700
     49 H122        -3.9900    -1.7710     3.1580 hc         1 3W4       0.049700
     50 H141        -7.4830    -2.2180     1.4610 hc         1 3W4       0.049700
     51 H142        -7.3320    -1.1700     0.4250 hc         1 3W4       0.049700
     52 H17          4.2220    -2.5170     2.8010 ha         1 3W4       0.166000
     53 H21          2.9320    -1.6930    -1.4480 ha         1 3W4       0.166000
     54 H18          4.2670    -4.6240     2.4440 ha         1 3W4       0.171000
     55 H20          2.5110    -4.0600    -1.7140 ha         1 3W4       0.171000
     56 HB           2.5930    -6.2090    -1.7000 hn         1 3W4       0.300500
     57 H23          3.3420    -8.4770    -1.7970 h1         1 3W4       0.086700
     58 H241         0.7800    -7.5630    -2.6330 hc         1 3W4       0.062200
     59 H242         0.5800    -9.1410    -1.6870 hc         1 3W4       0.062200
     60 H271         2.4420    -9.5710     0.4640 h1         1 3W4       0.131200
     61 H272         3.6510    -8.4000     0.7020 h1         1 3W4       0.131200
     62 H251        -1.2340    -7.6090    -0.9000 hc         1 3W4       0.045700
     63 H252        -0.2240    -6.4140    -0.3640 hc         1 3W4       0.045700
     64 H261        -0.8850    -7.4380     1.2980 h1         1 3W4       0.129200
     65 H262        -0.3940    -8.8990     0.5980 h1         1 3W4       0.129200
@<TRIPOS>BOND
     1     1     2 ar
     2     1     6 ar
     3     2     3 ar
     4     3     4 ar
     5     3    18 1
     6     4     5 ar
     7     5     6 ar
     8     6     7 1
     9     7     8 3
    10     8     9 1
    11     9    10 1
    12     9    14 1
    13     9    17 1
    14    10    11 1
    15    11    12 1
    16    11    16 1
    17    12    13 1
    18    13    14 1
    19    14    15 1
    20    15    16 1
    21    18    19 1
    22    19    20 ar
    23    19    24 ar
    24    20    21 ar
    25    21    22 ar
    26    22    23 ar
    27    22    25 1
    28    23    24 ar
    29    25    26 2
    30    25    27 1
    31    27    28 1
    32    28    29 1
    33    28    35 1
    34    29    30 1
    35    30    31 1
    36    31    32 1
    37    32    33 2
    38    32    34 2
    39    32    35 1
    40     1    36 1
    41     2    37 1
    42     4    38 1
    43     5    39 1
    44    10    40 1
    45    10    41 1
    46    14    42 1
    47    17    43 1
    48    12    44 1
    49    12    45 1
    50    16    46 1
    51    16    47 1
    52    13    48 1
    53    13    49 1
    54    15    50 1
    55    15    51 1
    56    20    52 1
    57    24    53 1
    58    21    54 1
    59    23    55 1
    60    27    56 1
    61    28    57 1
    62    29    58 1
    63    29    59 1
    64    35    60 1
    65    35    61 1
    66    30    62 1
    67    30    63 1
    68    31    64 1
    69    31    65 1
@<TRIPOS>SUBSTRUCTURE
     1 3W4         1 TEMP              0 ****  ****    0 ROOT
