@<TRIPOS>MOLECULE
3W5
   65    69     1     0     0
SMALL
bcc


@<TRIPOS>ATOM
      1 C1           0.0000     0.0000     0.0000 ca         1 3W5      -0.086000
      2 C2           1.3780     0.0000     0.0000 ca         1 3W5      -0.112000
      3 C3           2.0740     0.0000     1.2020 ca         1 3W5       0.091100
      4 C4           1.3850     0.0010     2.4070 ca         1 3W5      -0.112000
      5 C5           0.0070     0.0010     2.4160 ca         1 3W5      -0.086000
      6 C6          -0.6970     0.0010     1.2100 ca         1 3W5       0.065000
      7 C7          -2.1280     0.0010     1.2140 cg         1 3W5      -0.155000
      8 C8          -3.3020    -0.0100     1.2010 c1         1 3W5      -0.170100
      9 C9          -4.9330     0.3580     1.5810 c3         1 3W5       0.325900
     10 C10         -5.1600     0.2800     2.8430 c3         1 3W5       0.142800
     11 N1          -5.8770     1.5580     3.1690 n3         1 3W5      -0.529600
     12 C11         -6.9780     1.7870     2.2760 c3         1 3W5       0.130300
     13 C12         -6.7570     1.7550     0.7750 c3         1 3W5      -0.047400
     14 C13         -5.3380     1.1990     0.5740 c3         1 3W5      -0.049700
     15 C14         -4.6180     2.6310     1.0670 c3         1 3W5      -0.047400
     16 C15         -5.2210     2.8790     2.7180 c3         1 3W5       0.130300
     17 O1          -5.3180    -0.8740     0.7410 oh         1 3W5      -0.633800
     18 O2           3.2540    -0.4470     1.7610 os         1 3W5      -0.216200
     19 C16          3.3310    -1.7680     1.6240 ca         1 3W5       0.176100
     20 C21          3.3790    -2.3800     0.2540 ca         1 3W5      -0.165000
     21 C20          3.2730    -3.9380     0.0870 ca         1 3W5      -0.035500
     22 C19          2.7900    -4.6920     1.1080 ca         1 3W5      -0.162600
     23 C18          2.7700    -3.7330     2.4010 ca         1 3W5      -0.035500
     24 C17          3.1090    -2.5930     2.3540 ca         1 3W5      -0.165000
     25 C22          2.3490    -6.0760     0.9250 c          1 3W5       0.438700
     26 O3           2.4080    -6.7530     2.1390 o          1 3W5      -0.837100
     27 N2           2.0240    -6.3750    -0.0120 ns         1 3W5       0.177100
     28 C23          1.0910    -7.7990    -0.2620 c3         1 3W5       0.048700
     29 C24          1.0150    -8.3180     1.1660 c3         1 3W5      -0.114400
     30 C25         -0.0020    -9.8160     1.3790 c3         1 3W5       0.040600
     31 C26         -1.1200    -9.4290     0.6310 c3         1 3W5      -0.122600
     32 S1          -1.1840    -9.0360    -0.8340 s6         1 3W5       0.738000
     33 O5          -2.5030    -8.6280    -1.4690 o          1 3W5      -0.529300
     34 O4          -0.5050    -9.9740    -1.8910 o          1 3W5      -0.529300
     35 C27         -0.2570    -7.7070    -0.9400 c3         1 3W5      -0.097600
     36 H1          -0.5410    -0.0000    -0.9390 ha         1 3W5       0.112500
     37 H2           1.9190    -0.0010    -0.9390 ha         1 3W5       0.121500
     38 H4           1.9320     0.0010     3.3430 ha         1 3W5       0.121500
     39 H5          -0.5280     0.0020     3.3580 ha         1 3W5       0.112500
     40 H101        -4.2290     0.2160     3.3930 h1         1 3W5       0.067200
     41 H102        -5.7910    -0.5740     3.0620 h1         1 3W5       0.067200
     42 H13         -5.0860     0.8970    -0.4350 hc         1 3W5       0.099700
     43 HA          -5.2780    -1.6470     1.2800 ho         1 3W5       0.376000
     44 H111        -7.3900     2.7590     2.5180 h1         1 3W5       0.024200
     45 H112        -7.7340     1.0450     2.5040 h1         1 3W5       0.024200
     46 H151        -5.9540     3.6770     2.7280 h1         1 3W5       0.024200
     47 H152        -4.3980     3.1260     3.3780 h1         1 3W5       0.024200
     48 H121        -6.8290     2.7550     0.3650 hc         1 3W5       0.026950
     49 H122        -7.4840     1.1030     0.3050 hc         1 3W5       0.026950
     50 H141        -4.9230     3.4490     0.4250 hc         1 3W5       0.026950
     51 H142        -3.5390     2.5310     1.0680 hc         1 3W5       0.026950
     52 H17          3.0340    -2.1650     3.3460 ha         1 3W5       0.098500
     53 H21          3.7610    -1.7890    -0.5700 ha         1 3W5       0.098500
     54 H18          2.5360    -4.1750     3.3620 ha         1 3W5       0.101000
     55 H20          3.3430    -4.3760    -0.9010 ha         1 3W5       0.101000
     56 HB           2.2620    -5.8120    -0.8050 hn         1 3W5       0.153500
     57 H23          1.6930    -8.4950    -0.8340 h1         1 3W5       0.056700
     58 H241         0.6020    -7.5350     1.7910 hc         1 3W5       0.085200
     59 H242         2.0210    -8.5380     1.5020 hc         1 3W5       0.085200
     60 H271        -0.8000    -6.8800    -0.4990 h1         1 3W5       0.099700
     61 H272        -0.0930    -7.4920    -1.9900 h1         1 3W5       0.099700
     62 H251        -0.2590    -9.9730     2.4190 hc         1 3W5       0.037200
     63 H252         0.4800   -10.6840     0.9450 hc         1 3W5       0.037200
     64 H261        -1.5400    -8.5870     1.1670 h1         1 3W5       0.099200
     65 H262        -1.8250   -10.2450     0.7350 h1         1 3W5       0.099200
@<TRIPOS>BOND
     1     1     2 ar  
     2     1     6 ar  
     3     1    36 1   
     4     2     3 ar  
     5     2    37 1   
     6     3     4 ar  
     7     3    18 1   
     8     4     5 ar  
     9     4    38 1   
    10     5     6 ar  
    11     5    39 1   
    12     6     7 1   
    13     7     8 3   
    14     8     9 1   
    15     9    10 1   
    16     9    14 1   
    17     9    17 1   
    18    10    11 1   
    19    10    40 1   
    20    10    41 1   
    21    11    12 1   
    22    11    16 1   
    23    12    13 1   
    24    12    44 1   
    25    12    45 1   
    26    13    14 1   
    27    13    48 1   
    28    13    49 1   
    29    14    15 1   
    30    14    42 1   
    31    15    16 1   
    32    15    50 1   
    33    15    51 1   
    34    16    46 1   
    35    16    47 1   
    36    17    43 1   
    37    18    19 1   
    38    19    20 ar  
    39    19    24 ar  
    40    20    21 ar  
    41    20    53 1   
    42    21    22 ar  
    43    21    55 1   
    44    22    23 ar  
    45    22    25 1   
    46    23    24 ar  
    47    23    54 1   
    48    24    52 1   
    49    25    26 2   
    50    25    27 1   
    51    27    28 1   
    52    27    56 1   
    53    28    29 1   
    54    28    35 1   
    55    28    57 1   
    56    29    30 1   
    57    29    58 1   
    58    29    59 1   
    59    30    31 1   
    60    30    62 1   
    61    30    63 1   
    62    31    32 1   
    63    31    64 1   
    64    31    65 1   
    65    32    33 2   
    66    32    34 2   
    67    32    35 1   
    68    35    60 1   
    69    35    61 1   
@<TRIPOS>SUBSTRUCTURE
     1 3W5         1 TEMP              0 ****  ****    0 ROOT
