@<TRIPOS>MOLECULE
molecule
   65    69     1     0     0
SMALL
bcc


@<TRIPOS>ATOM
      1 C1           0.0000     0.0000     0.0000 ca         1 3W5      -0.110000
      2 C2           1.3780     0.0000     0.0000 ca         1 3W5      -0.127000
      3 C3           2.0740     0.0000     1.2020 ca         1 3W5       0.087100
      4 C4           1.3850     0.0010     2.4070 ca         1 3W5      -0.127000
      5 C5           0.0070     0.0010     2.4160 ca         1 3W5      -0.110000
      6 C6          -0.6970     0.0010     1.2100 ca         1 3W5       0.040000
      7 C7          -2.1280     0.0010     1.2140 cg         1 3W5      -0.160000
      8 C8          -3.3020    -0.0100     1.2010 c1         1 3W5      -0.151100
      9 C9          -4.9330     0.3580     1.5810 c3         1 3W5       0.283900
     10 C10         -5.1600     0.2800     2.8430 c3         1 3W5       0.135800
     11 N1          -5.8770     1.5580     3.1690 n3         1 3W5      -0.651600
     12 C11         -6.9780     1.7870     2.2760 c3         1 3W5       0.110800
     13 C12         -6.7570     1.7550     0.7750 c3         1 3W5      -0.110400
     14 C13         -5.3380     1.1990     0.5740 c3         1 3W5      -0.059700
     15 C14         -4.6180     2.6310     1.0670 c3         1 3W5      -0.110400
     16 C15         -5.2210     2.8790     2.7180 c3         1 3W5       0.110800
     17 O1          -5.3180    -0.8740     0.7410 oh         1 3W5      -0.637800
     18 O2           3.2540    -0.4470     1.7610 os         1 3W5      -0.239200
     19 C16          3.3310    -1.7680     1.6240 ca         1 3W5       0.150100
     20 C21          3.3790    -2.3800     0.2540 ca         1 3W5      -0.167500
     21 C20          3.2730    -3.9380     0.0870 ca         1 3W5      -0.081500
     22 C19          2.7900    -4.6920     1.1080 ca         1 3W5      -0.154600
     23 C18          2.7700    -3.7330     2.4010 ca         1 3W5      -0.081500
     24 C17          3.1090    -2.5930     2.3540 ca         1 3W5      -0.167500
     25 C22          2.3490    -6.0760     0.9250 c          1 3W5       0.620700
     26 O3           2.4080    -6.7530     2.1390 o          1 3W5      -0.793100
     27 N2           2.0240    -6.3750    -0.0120 ns         1 3W5      -0.369900
     28 C23          1.0910    -7.7990    -0.2620 c3         1 3W5       0.159700
     29 C24          1.0150    -8.3180     1.1660 c3         1 3W5      -0.124400
     30 C25         -0.0020    -9.8160     1.3790 c3         1 3W5      -0.040400
     31 C26         -1.1200    -9.4290     0.6310 c3         1 3W5      -0.381600
     32 S1          -1.1840    -9.0360    -0.8340 s6         1 3W5       1.109000
     33 O5          -2.5030    -8.6280    -1.4690 o          1 3W5      -0.557300
     34 O4          -0.5050    -9.9740    -1.8910 o          1 3W5      -0.557300
     35 C27         -0.2570    -7.7070    -0.9400 c3         1 3W5      -0.324600
     36 H1          -0.5410    -0.0000    -0.9390 ha         1 3W5       0.143000
     37 H2           1.9190    -0.0010    -0.9390 ha         1 3W5       0.148000
     38 H4           1.9320     0.0010     3.3430 ha         1 3W5       0.148000
     39 H5          -0.5280     0.0020     3.3580 ha         1 3W5       0.143000
     40 H101        -4.2290     0.2160     3.3930 h1         1 3W5       0.098700
     41 H102        -5.7910    -0.5740     3.0620 h1         1 3W5       0.098700
     42 H13         -5.0860     0.8970    -0.4350 hc         1 3W5       0.124700
     43 HA          -5.2780    -1.6470     1.2800 ho         1 3W5       0.381000
     44 H111        -7.3900     2.7590     2.5180 h1         1 3W5       0.057950
     45 H112        -7.7340     1.0450     2.5040 h1         1 3W5       0.057950
     46 H151        -5.9540     3.6770     2.7280 h1         1 3W5       0.057950
     47 H152        -4.3980     3.1260     3.3780 h1         1 3W5       0.057950
     48 H121        -6.8290     2.7550     0.3650 hc         1 3W5       0.056450
     49 H122        -7.4840     1.1030     0.3050 hc         1 3W5       0.056450
     50 H141        -4.9230     3.4490     0.4250 hc         1 3W5       0.056450
     51 H142        -3.5390     2.5310     1.0680 hc         1 3W5       0.056450
     52 H17          3.0340    -2.1650     3.3460 ha         1 3W5       0.124500
     53 H21          3.7610    -1.7890    -0.5700 ha         1 3W5       0.124500
     54 H18          2.5360    -4.1750     3.3620 ha         1 3W5       0.128500
     55 H20          3.3430    -4.3760    -0.9010 ha         1 3W5       0.128500
     56 HB           2.2620    -5.8120    -0.8050 hn         1 3W5       0.321500
     57 H23          1.6930    -8.4950    -0.8340 h1         1 3W5       0.093700
     58 H241         0.6020    -7.5350     1.7910 hc         1 3W5       0.110700
     59 H242         2.0210    -8.5380     1.5020 hc         1 3W5       0.110700
     60 H271        -0.8000    -6.8800    -0.4990 h1         1 3W5       0.136200
     61 H272        -0.0930    -7.4920    -1.9900 h1         1 3W5       0.136200
     62 H251        -0.2590    -9.9730     2.4190 hc         1 3W5       0.076700
     63 H252         0.4800   -10.6840     0.9450 hc         1 3W5       0.076700
     64 H261        -1.5400    -8.5870     1.1670 h1         1 3W5       0.137700
     65 H262        -1.8250   -10.2450     0.7350 h1         1 3W5       0.137700
@<TRIPOS>BOND
     1     1     2 ar
     2     1     6 ar
     3     2     3 ar
     4     3     4 ar
     5     3    18 1
     6     4     5 ar
     7     5     6 ar
     8     6     7 1
     9     7     8 3
    10     8     9 1
    11     9    10 1
    12     9    14 1
    13     9    17 1
    14    10    11 1
    15    11    12 1
    16    11    16 1
    17    12    13 1
    18    13    14 1
    19    14    15 1
    20    15    16 1
    21    18    19 1
    22    19    24 ar
    23    19    20 ar
    24    24    23 ar
    25    23    22 ar
    26    22    21 ar
    27    22    25 1
    28    21    20 ar
    29    25    26 2
    30    25    27 1
    31    27    28 1
    32    28    29 1
    33    28    35 1
    34    29    30 1
    35    30    31 1
    36    31    32 1
    37    32    34 2
    38    32    33 2
    39    32    35 1
    40     1    36 1
    41     2    37 1
    42     4    38 1
    43     5    39 1
    44    10    40 1
    45    10    41 1
    46    14    42 1
    47    17    43 1
    48    12    44 1
    49    12    45 1
    50    16    46 1
    51    16    47 1
    52    13    48 1
    53    13    49 1
    54    15    50 1
    55    15    51 1
    56    24    52 1
    57    20    53 1
    58    23    54 1
    59    21    55 1
    60    27    56 1
    61    28    57 1
    62    29    58 1
    63    29    59 1
    64    35    60 1
    65    35    61 1
    66    30    62 1
    67    30    63 1
    68    31    64 1
    69    31    65 1
@<TRIPOS>SUBSTRUCTURE
     1 3W5         1 TEMP              0 ****  ****    0 ROOT
