@<TRIPOS>MOLECULE
molecule
   28    28     1     0     0
SMALL
bcc


@<TRIPOS>ATOM
      1 CAN          0.0000     0.0000     0.0000 c3         1 3W6      -0.091100
      2 CAM          1.5300     0.0000     0.0000 c3         1 3W6      -0.083400
      3 CAL          2.0400     0.0000     1.4430 c3         1 3W6       0.124400
      4 OAH          3.4690     0.0010     1.4440 os         1 3W6      -0.295900
      5 CAD          4.0850     0.0010     2.6540 ca         1 3W6       0.247100
      6 CAC          3.3310    -0.0050     3.8190 ca         1 3W6      -0.198500
      7 CAB          3.9600    -0.0060     5.0480 ca         1 3W6       0.009500
      8 CAA          5.3410     0.0000     5.1200 ca         1 3W6      -0.388500
      9 SAG          6.1400     0.0000     6.6900 sy         1 3W6       1.227200
     10 OAI          7.4340     0.5520     6.4820 o          1 3W6      -0.522800
     11 OAJ          5.2070     0.5380     7.6160 o          1 3W6      -0.522800
     12 NAK          6.3700    -1.5810     7.1230 nz         1 3W6      -0.806500
     13 CAF          6.0950     0.0060     3.9610 ca         1 3W6       0.009500
     14 CAE          5.4710     0.0010     2.7290 ca         1 3W6      -0.198500
     15 HAQ         -0.3610     0.8850     0.5100 hc         1 3W6       0.046367
     16 HAP         -0.3610    -0.8840     0.5120 hc         1 3W6       0.046367
     17 HAR         -0.3610    -0.0010    -1.0210 hc         1 3W6       0.046367
     18 HAN          1.8910     0.8850    -0.5110 hc         1 3W6       0.064200
     19 HAO          1.8910    -0.8850    -0.5110 hc         1 3W6       0.064200
     20 HAL          1.6800    -0.8850     1.9530 h1         1 3W6       0.046200
     21 HAM          1.6790     0.8840     1.9540 h1         1 3W6       0.046200
     22 HAC          2.2490    -0.0100     3.7630 ha         1 3W6       0.173000
     23 HAB          3.3710    -0.0110     5.9580 ha         1 3W6       0.156500
     24 HAS          5.4850    -2.0440     7.1800 hn         1 3W6       0.490800
     25 HAK          6.8250    -1.6210     8.0140 hn         1 3W6       0.490800
     26 HAF          7.1770     0.0090     4.0190 ha         1 3W6       0.156500
     27 HAE          6.0620     0.0050     1.8210 ha         1 3W6       0.173000
     28 HAK3         6.9550    -2.0310     6.4460 hn         1 3W6       0.490800
@<TRIPOS>BOND
     1     2     3 1
     2     2     1 1
     3     3     4 1
     4     4     5 1
     5     5    14 ar
     6     5     6 ar
     7    14    13 ar
     8     6     7 ar
     9    13     8 ar
    10     7     8 ar
    11     8     9 1
    12    12     9 1
    13    11     9 2
    14     9    10 2
    15     1    15 1
    16     1    16 1
    17     1    17 1
    18     2    18 1
    19     2    19 1
    20     3    20 1
    21     3    21 1
    22     6    22 1
    23     7    23 1
    24    12    24 1
    25    12    25 1
    26    13    26 1
    27    14    27 1
    28    28    12 1
@<TRIPOS>SUBSTRUCTURE
     1 3W6         1 TEMP              0 ****  ****    0 ROOT
