@<TRIPOS>MOLECULE
3W6
   28    28     1     0     0
SMALL
bcc


@<TRIPOS>ATOM
      1 CAN          0.0000     0.0000     0.0000 c3         1 3W6       0.013900
      2 CAM          1.5300     0.0000     0.0000 c3         1 3W6      -0.031400
      3 CAL          2.0400     0.0000     1.4430 c3         1 3W6       0.198400
      4 OAH          3.4690     0.0010     1.4440 os         1 3W6      -0.279900
      5 CAD          4.0850     0.0010     2.6540 ca         1 3W6       0.262100
      6 CAC          3.3310    -0.0050     3.8190 ca         1 3W6      -0.190000
      7 CAB          3.9600    -0.0060     5.0480 ca         1 3W6       0.056000
      8 CAA          5.3410     0.0000     5.1200 ca         1 3W6      -0.279500
      9 SAG          6.1400     0.0000     6.6900 sy         1 3W6       0.936200
     10 OAI          7.4340     0.5520     6.4820 o          1 3W6      -0.498800
     11 OAJ          5.2070     0.5380     7.6160 o          1 3W6      -0.498800
     12 NAK          6.3700    -1.5810     7.1230 nz         1 3W6      -0.133500
     13 CAF          6.0950     0.0060     3.9610 ca         1 3W6       0.056000
     14 CAE          5.4710     0.0010     2.7290 ca         1 3W6      -0.190000
     15 HAQ         -0.3610     0.8850     0.5100 hc         1 3W6       0.008700
     16 HAP         -0.3610    -0.8840     0.5120 hc         1 3W6       0.008700
     17 HAR         -0.3610    -0.0010    -1.0210 hc         1 3W6       0.008700
     18 HAN          1.8910     0.8850    -0.5110 hc         1 3W6       0.029200
     19 HAO          1.8910    -0.8850    -0.5110 hc         1 3W6       0.029200
     20 HAL          1.6800    -0.8850     1.9530 h1         1 3W6       0.008200
     21 HAM          1.6790     0.8840     1.9540 h1         1 3W6       0.008200
     22 HAC          2.2490    -0.0100     3.7630 ha         1 3W6       0.146500
     23 HAB          3.3710    -0.0110     5.9580 ha         1 3W6       0.123500
     24 HAS          5.4850    -2.0440     7.1800 hn         1 3W6       0.312800
     25 HAK          6.8250    -1.6210     8.0140 hn         1 3W6       0.312800
     26 HAF          7.1770     0.0090     4.0190 ha         1 3W6       0.123500
     27 HAE          6.0620     0.0050     1.8210 ha         1 3W6       0.146500
     28 HAK3         6.9550    -2.0310     6.4460 hn         1 3W6       0.312800
@<TRIPOS>BOND
     1     1     2 1   
     2     1    15 1   
     3     1    16 1   
     4     1    17 1   
     5     2     3 1   
     6     2    18 1   
     7     2    19 1   
     8     3     4 1   
     9     3    20 1   
    10     3    21 1   
    11     4     5 1   
    12     5     6 ar  
    13     5    14 ar  
    14     6     7 ar  
    15     6    22 1   
    16     7     8 ar  
    17     7    23 1   
    18     8     9 1   
    19     8    13 ar  
    20     9    10 2   
    21     9    11 2   
    22     9    12 1   
    23    12    24 1   
    24    12    25 1   
    25    12    28 1   
    26    13    14 ar  
    27    13    26 1   
    28    14    27 1   
@<TRIPOS>SUBSTRUCTURE
     1 3W6         1 TEMP              0 ****  ****    0 ROOT
