@<TRIPOS>MOLECULE
molecule
   54    58     1     0     0
SMALL
bcc


@<TRIPOS>ATOM
      1 C1           0.0000     0.0000     0.0000 ca         1 3W7      -0.061000
      2 C2           1.3520     0.0000     0.0000 ca         1 3W7      -0.115000
      3 C3          -0.1100     0.0130     2.4310 ca         1 3W7      -0.030000
      4 C4           2.2300    -0.0110     3.5080 cc         1 3W7      -0.100100
      5 C5          -4.4570     6.8590     3.6320 cd         1 3W7       0.305200
      6 C6           1.2950     0.0010     2.4850 ca         1 3W7      -0.209000
      7 C7          -0.7400     0.0060     1.2010 ca         1 3W7      -0.173600
      8 C8          -4.4970     5.4790     3.5870 cd         1 3W7      -0.230600
      9 C9           2.0570     0.0000     1.2260 ca         1 3W7      -0.022000
     10 C10         -4.0310     5.0550     4.8310 cc         1 3W7      -0.245900
     11 C11         -3.9340     3.6290     5.1620 c          1 3W7       0.616700
     12 C12         -2.2150     0.0070     1.1420 c          1 3W7       0.684700
     13 C13         -4.9260     4.5400     2.4980 c3         1 3W7       0.006900
     14 C14         -4.6250     2.6920     4.1830 c3         1 3W7      -0.160400
     15 C15         -4.9350     2.2330     1.7450 c3         1 3W7      -0.091400
     16 C16         -2.7990     3.2290     2.5770 c3         1 3W7      -0.091400
     17 C17         -4.3860     0.8230     1.9800 c3         1 3W7       0.098500
     18 C18         -2.2250     1.8290     2.8210 c3         1 3W7       0.098500
     19 C19         -4.3180     3.1930     2.7640 c3         1 3W7      -0.057000
     20 C20         -1.8520     6.8960     6.9120 c3         1 3W7      -0.104100
     21 C21         -4.1790     6.9470     7.8200 c3         1 3W7      -0.104100
     22 N23          3.4470     0.0010     2.9510 na         1 3W7       0.027800
     23 N24         -3.9950     7.2070     4.8130 nc         1 3W7      -0.516800
     24 N25          3.3340     0.0010     1.5560 nc         1 3W7      -0.274400
     25 N26         -3.7410     6.1690     5.5370 na         1 3W7       0.192400
     26 N27         -2.9190     0.8740     1.9450 n          1 3W7      -0.502800
     27 O28         -3.3440     3.2270     6.1430 o          1 3W7      -0.542100
     28 O29         -2.7920    -0.7060     0.3430 o          1 3W7      -0.597100
     29 H1          -0.5280    -0.0050    -0.9460 ha         1 3W7       0.150000
     30 H2           1.8940    -0.0050    -0.9380 ha         1 3W7       0.146000
     31 H3          -0.6930     0.0170     3.3440 ha         1 3W7       0.136000
     32 H4           2.0150    -0.0140     4.5700 h4         1 3W7       0.177000
     33 H5          -4.7470     7.5330     2.8360 h4         1 3W7       0.050100
     34 H6          -6.0060     4.4620     2.4920 hc         1 3W7       0.058700
     35 H7          -4.5790     4.9140     1.5420 hc         1 3W7       0.058700
     36 H8          -5.6950     2.7190     4.3500 hc         1 3W7       0.077700
     37 H9          -4.2560     1.6830     4.3250 hc         1 3W7       0.077700
     38 H10         -4.6790     2.5570     0.7440 hc         1 3W7       0.057450
     39 H11         -6.0120     2.2250     1.8650 hc         1 3W7       0.057450
     40 H12         -2.5680     3.5420     1.5670 hc         1 3W7       0.057450
     41 H13         -2.3650     3.9240     3.2860 hc         1 3W7       0.057450
     42 H14         -4.7440     0.1610     1.2010 h1         1 3W7       0.059450
     43 H15         -4.7130     0.4630     2.9480 h1         1 3W7       0.059450
     44 H16         -1.1660     1.8270     2.5920 h1         1 3W7       0.059450
     45 H17         -2.3800     1.5490     3.8560 h1         1 3W7       0.059450
     46 H18         -1.9770     7.9300     6.6130 hc         1 3W7       0.051200
     47 H19         -1.4150     6.8560     7.9020 hc         1 3W7       0.051200
     48 H20         -1.2000     6.3930     6.2080 hc         1 3W7       0.051200
     49 H21         -4.2200     7.9890     7.5260 hc         1 3W7       0.051200
     50 H22         -3.8200     6.8740     8.8400 hc         1 3W7       0.051200
     51 H23         -5.1700     6.5140     7.7550 hc         1 3W7       0.051200
     52 H24         -3.0970     5.1780     7.2580 h1         1 3W7       0.098700
     53 H25          4.3100     0.0090     3.4570 hn         1 3W7       0.333700
     54 C22         -3.2130     6.1950     6.9040 c3         1 3W7       0.060000
@<TRIPOS>BOND
     1    20    54 1   
     2    21    54 1   
     3    54    25 1   
     4    25    23 1   
     5    25    10 1   
     6    27    11 2   
     7    23     5 2   
     8    10    11 1   
     9    10     8 2   
    10    11    14 1   
    11     5     8 1   
    12     8    13 1   
    13    14    19 1   
    14    13    19 1   
    15    19    16 1   
    16    19    15 1   
    17    16    18 1   
    18    15    17 1   
    19    18    26 1   
    20    17    26 1   
    21    26    12 1   
    22    12     7 1   
    23    12    28 2   
    24     7     3 ar  
    25     7     1 ar  
    26     3     6 ar  
    27     1     2 ar  
    28     6     4 2   
    29     6     9 ar  
    30     4    22 1   
    31     2     9 ar  
    32     9    24 2   
    33    22    24 1   
    34     1    29 1   
    35     2    30 1   
    36     3    31 1   
    37     4    32 1   
    38     5    33 1   
    39    13    34 1   
    40    13    35 1   
    41    14    36 1   
    42    14    37 1   
    43    15    38 1   
    44    15    39 1   
    45    16    40 1   
    46    16    41 1   
    47    17    42 1   
    48    17    43 1   
    49    18    44 1   
    50    18    45 1   
    51    20    46 1   
    52    20    47 1   
    53    20    48 1   
    54    21    49 1   
    55    21    50 1   
    56    21    51 1   
    57    54    52 1   
    58    22    53 1   
@<TRIPOS>SUBSTRUCTURE
     1 3W7         1 TEMP              0 ****  ****    0 ROOT
