@<TRIPOS>MOLECULE
3W7
   54    58     1     0     0
SMALL
bcc


@<TRIPOS>ATOM
      1 C1           0.0000     0.0000     0.0000 ca         1 3W7      -0.032000
      2 C2           1.3520     0.0000     0.0000 ca         1 3W7      -0.092000
      3 C3          -0.1100     0.0130     2.4310 ca         1 3W7      -0.006000
      4 C4           2.2300    -0.0110     3.5080 cc         1 3W7      -0.269100
      5 C5          -4.4570     6.8590     3.6320 cc         1 3W7       0.343200
      6 C6           1.2950     0.0010     2.4850 ca         1 3W7      -0.211000
      7 C7          -0.7400     0.0060     1.2010 ca         1 3W7      -0.183600
      8 C8          -4.4970     5.4790     3.5870 cc         1 3W7      -0.236600
      9 C9           2.0570     0.0000     1.2260 ca         1 3W7       0.013000
     10 C10         -4.0310     5.0550     4.8310 cd         1 3W7      -0.446900
     11 C11         -3.9340     3.6290     5.1620 c          1 3W7       0.690700
     12 C12         -2.2150     0.0070     1.1420 c          1 3W7       0.626700
     13 C13         -4.9260     4.5400     2.4980 c3         1 3W7       0.079900
     14 C14         -4.6250     2.6920     4.1830 c3         1 3W7      -0.119400
     15 C15         -4.9350     2.2330     1.7450 c3         1 3W7      -0.042400
     16 C16         -2.7990     3.2290     2.5770 c3         1 3W7      -0.042400
     17 C17         -4.3860     0.8230     1.9800 c3         1 3W7       0.032500
     18 C18         -2.2250     1.8290     2.8210 c3         1 3W7       0.032500
     19 C19         -4.3180     3.1930     2.7640 c3         1 3W7      -0.058000
     20 C20         -1.8520     6.8960     6.9120 c3         1 3W7      -0.003600
     21 C21         -4.1790     6.9470     7.8200 c3         1 3W7      -0.003600
     22 N23          3.4470     0.0010     2.9510 na         1 3W7       0.561800
     23 N24         -3.9950     7.2070     4.8130 nd         1 3W7      -0.652800
     24 N25          3.3340     0.0010     1.5560 nc         1 3W7      -0.445400
     25 N26         -3.7410     6.1690     5.5370 na         1 3W7       0.691400
     26 N27         -2.9190     0.8740     1.9450 n          1 3W7      -0.173800
     27 O28         -3.3440     3.2270     6.1430 o          1 3W7      -0.582100
     28 O29         -2.7920    -0.7060     0.3430 o          1 3W7      -0.635100
     29 H1          -0.5280    -0.0050    -0.9460 ha         1 3W7       0.117000
     30 H2           1.8940    -0.0050    -0.9380 ha         1 3W7       0.116000
     31 H3          -0.6930     0.0170     3.3440 ha         1 3W7       0.110000
     32 H4           2.0150    -0.0140     4.5700 h4         1 3W7       0.149000
     33 H5          -4.7470     7.5330     2.8360 h4         1 3W7       0.009100
     34 H6          -6.0060     4.4620     2.4920 hc         1 3W7       0.028200
     35 H7          -4.5790     4.9140     1.5420 hc         1 3W7       0.028200
     36 H8          -5.6950     2.7190     4.3500 hc         1 3W7       0.050700
     37 H9          -4.2560     1.6830     4.3250 hc         1 3W7       0.050700
     38 H10         -4.6790     2.5570     0.7440 hc         1 3W7       0.030700
     39 H11         -6.0120     2.2250     1.8650 hc         1 3W7       0.030700
     40 H12         -2.5680     3.5420     1.5670 hc         1 3W7       0.030700
     41 H13         -2.3650     3.9240     3.2860 hc         1 3W7       0.030700
     42 H14         -4.7440     0.1610     1.2010 h1         1 3W7       0.038200
     43 H15         -4.7130     0.4630     2.9480 h1         1 3W7       0.038200
     44 H16         -1.1660     1.8270     2.5920 h1         1 3W7       0.038200
     45 H17         -2.3800     1.5490     3.8560 h1         1 3W7       0.038200
     46 H18         -1.9770     7.9300     6.6130 hc         1 3W7       0.017700
     47 H19         -1.4150     6.8560     7.9020 hc         1 3W7       0.017700
     48 H20         -1.2000     6.3930     6.2080 hc         1 3W7       0.017700
     49 H21         -4.2200     7.9890     7.5260 hc         1 3W7       0.017700
     50 H22         -3.8200     6.8740     8.8400 hc         1 3W7       0.017700
     51 H23         -5.1700     6.5140     7.7550 hc         1 3W7       0.017700
     52 H24         -3.0970     5.1780     7.2580 h1         1 3W7       0.077700
     53 H25          4.3100     0.0090     3.4570 hn         1 3W7       0.140700
     54 C22         -3.2130     6.1950     6.9040 c3         1 3W7      -0.095000
@<TRIPOS>BOND
     1     1     2 ar  
     2     1     7 ar  
     3     1    29 1   
     4     2     9 ar  
     5     2    30 1   
     6     3     6 ar  
     7     3     7 ar  
     8     3    31 1   
     9     4     6 2   
    10     4    22 1   
    11     4    32 1   
    12     5     8 1   
    13     5    23 2   
    14     5    33 1   
    15     6     9 ar  
    16     7    12 1   
    17     8    10 2   
    18     8    13 1   
    19     9    24 2   
    20    10    11 1   
    21    10    25 1   
    22    11    14 1   
    23    11    27 2   
    24    12    26 1   
    25    12    28 2   
    26    13    19 1   
    27    13    34 1   
    28    13    35 1   
    29    14    19 1   
    30    14    36 1   
    31    14    37 1   
    32    15    17 1   
    33    15    19 1   
    34    15    38 1   
    35    15    39 1   
    36    16    18 1   
    37    16    19 1   
    38    16    40 1   
    39    16    41 1   
    40    17    26 1   
    41    17    42 1   
    42    17    43 1   
    43    18    26 1   
    44    18    44 1   
    45    18    45 1   
    46    20    46 1   
    47    20    47 1   
    48    20    48 1   
    49    20    54 1   
    50    21    49 1   
    51    21    50 1   
    52    21    51 1   
    53    21    54 1   
    54    22    24 1   
    55    22    53 1   
    56    23    25 1   
    57    25    54 1   
    58    52    54 1   
@<TRIPOS>SUBSTRUCTURE
     1 3W7         1 TEMP              0 ****  ****    0 ROOT
