@<TRIPOS>MOLECULE
3W8
   25    25     1     0     0
SMALL
bcc


@<TRIPOS>ATOM
      1 CAM          0.0000     0.0000     0.0000 c3         1 3W8       0.003900
      2 CAL          1.5290     0.0000     0.0000 c3         1 3W8       0.200400
      3 OAH          2.0060     0.0000     1.3480 os         1 3W8      -0.280900
      4 CAD          3.3540     0.0010     1.5260 ca         1 3W8       0.261100
      5 CAC          4.2000     0.0070     0.4260 ca         1 3W8      -0.189000
      6 CAB          5.5690     0.0080     0.6100 ca         1 3W8       0.056000
      7 CAA          6.0960     0.0010     1.8890 ca         1 3W8      -0.278500
      8 SAG          7.8430     0.0020     2.1200 sy         1 3W8       0.936200
      9 OAI          8.0760    -0.5490     3.4080 o          1 3W8      -0.498300
     10 OAJ          8.4050    -0.5360     0.9300 o          1 3W8      -0.498300
     11 NAK          8.3270     1.5840     2.1920 nz         1 3W8      -0.131500
     12 CAF          5.2540    -0.0050     2.9860 ca         1 3W8       0.056000
     13 CAE          3.8850     0.0000     2.8070 ca         1 3W8      -0.189000
     14 HAN         -0.3610     0.8850     0.5110 hc         1 3W8       0.021700
     15 HAO         -0.3610    -0.8840     0.5110 hc         1 3W8       0.021700
     16 HAP         -0.3610    -0.0000    -1.0210 hc         1 3W8       0.021700
     17 HAL          1.8900    -0.8850    -0.5110 h1         1 3W8       0.006200
     18 HAM          1.8900     0.8850    -0.5110 h1         1 3W8       0.006200
     19 HAC          3.7870     0.0120    -0.5750 ha         1 3W8       0.146500
     20 HAB          6.2300     0.0130    -0.2480 ha         1 3W8       0.123500
     21 HAQ          7.8710     2.0380     2.9580 hn         1 3W8       0.312467
     22 HAK          8.0840     2.0460     1.3380 hn         1 3W8       0.312467
     23 HAF          5.6700    -0.0070     3.9860 ha         1 3W8       0.123500
     24 HAE          3.2260    -0.0040     3.6670 ha         1 3W8       0.146500
     25 HAK3         9.3200     1.6230     2.3060 hn         1 3W8       0.312467
@<TRIPOS>BOND
     1     1     2 1   
     2     1    14 1   
     3     1    15 1   
     4     1    16 1   
     5     2     3 1   
     6     2    17 1   
     7     2    18 1   
     8     3     4 1   
     9     4     5 ar  
    10     4    13 ar  
    11     5     6 ar  
    12     5    19 1   
    13     6     7 ar  
    14     6    20 1   
    15     7     8 1   
    16     7    12 ar  
    17     8     9 2   
    18     8    10 2   
    19     8    11 1   
    20    11    21 1   
    21    11    22 1   
    22    11    25 1   
    23    12    13 ar  
    24    12    23 1   
    25    13    24 1   
@<TRIPOS>SUBSTRUCTURE
     1 3W8         1 TEMP              0 ****  ****    0 ROOT
