@<TRIPOS>MOLECULE
molecule
   28    28     1     0     0
SMALL
bcc


@<TRIPOS>ATOM
      1 C13          0.0000     0.0000     0.0000 c          1 3W9       0.588500
      2 O01          1.2130     0.0000     0.0000 o          1 3W9      -0.545100
      3 C12         -0.7340     0.0000     1.2710 ca         1 3W9      -0.268600
      4 C10         -2.1350     0.0000     1.2730 ca         1 3W9      -0.026500
      5 C08         -2.8140     0.0010     2.4580 ca         1 3W9      -0.230500
      6 C05         -2.1160     0.0020     3.6630 ca         1 3W9       0.236600
      7 C09         -0.7230     0.0030     3.6660 ca         1 3W9      -0.230500
      8 C11         -0.0360    -0.0040     2.4860 ca         1 3W9      -0.026500
      9 N02         -2.8100     0.0100     4.8650 nh         1 3W9      -0.723000
     10 C04         -4.2750     0.0100     4.8660 c3         1 3W9       0.229800
     11 C07         -4.7850    -1.4320     4.8750 c3         1 3W9      -0.121100
     12 C03         -2.0780     0.0190     6.1340 c3         1 3W9       0.229800
     13 C06         -1.8230     1.4640     6.5670 c3         1 3W9      -0.121100
     14 H1          -0.5410    -0.0000    -0.9380 h4         1 3W9      -0.007800
     15 H2          -2.6790    -0.0010     0.3360 ha         1 3W9       0.139500
     16 H3          -3.8970     0.0010     2.4600 ha         1 3W9       0.136000
     17 H4          -0.1830     0.0020     4.6050 ha         1 3W9       0.136000
     18 H5           1.0470    -0.0040     2.4890 ha         1 3W9       0.139500
     19 H6          -4.6360     0.5260     5.7470 h1         1 3W9       0.052200
     20 H7          -4.6370     0.5150     3.9780 h1         1 3W9       0.052200
     21 H8          -5.6030    -1.5310     4.1720 hc         1 3W9       0.043033
     22 H9          -3.9810    -2.1010     4.5890 hc         1 3W9       0.043033
     23 H10         -5.1300    -1.6870     5.8690 hc         1 3W9       0.043033
     24 H11         -1.1320    -0.4930     6.0080 h1         1 3W9       0.052200
     25 H12         -2.6640    -0.4870     6.8920 h1         1 3W9       0.052200
     26 H13         -1.9780     2.1260     5.7240 hc         1 3W9       0.043033
     27 H14         -2.5080     1.7280     7.3640 hc         1 3W9       0.043033
     28 H15         -0.8040     1.5610     6.9200 hc         1 3W9       0.043033
@<TRIPOS>BOND
     1    13    12 1   
     2    12     9 1   
     3    10     9 1   
     4    10    11 1   
     5     9     6 1   
     6     6     7 ar  
     7     6     5 ar  
     8     7     8 ar  
     9     5     4 ar  
    10     8     3 ar  
    11     4     3 ar  
    12     3     1 1   
    13     1     2 2   
    14     1    14 1   
    15     4    15 1   
    16     5    16 1   
    17     7    17 1   
    18     8    18 1   
    19    10    19 1   
    20    10    20 1   
    21    11    21 1   
    22    11    22 1   
    23    11    23 1   
    24    12    24 1   
    25    12    25 1   
    26    13    26 1   
    27    13    27 1   
    28    13    28 1   
@<TRIPOS>SUBSTRUCTURE
     1 3W9         1 TEMP              0 ****  ****    0 ROOT
