@<TRIPOS>MOLECULE
3WA
   18    19     1     0     0
SMALL
bcc


@<TRIPOS>ATOM
      1 C1           0.0000     0.0000     0.0000 ca         1 3WA      -0.504200
      2 C2           1.4070     0.0000     0.0000 ca         1 3WA       0.524200
      3 C3          -0.7070    -0.0000    -1.2850 c          1 3WA       0.657900
      4 N6           2.0430     0.0000     1.1690 nb         1 3WA      -0.734000
      5 C7           0.0790     0.0000    -2.4660 cc         1 3WA      -0.295200
      6 C11          1.4240    -0.0000    -2.3800 cd         1 3WA      -0.043000
      7 C12          1.3680     0.0000     2.3000 ca         1 3WA       0.724900
      8 C4          -0.6780    -0.0060     1.2310 ca         1 3WA       0.614200
      9 N5           2.0810    -0.0000    -1.1910 na         1 3WA      -0.181700
     10 O8          -1.9260     0.0000    -1.3370 o          1 3WA      -0.622100
     11 N9           0.0500     0.0000     2.3460 nb         1 3WA      -0.733000
     12 N10         -2.0550    -0.0050     1.2820 nv         1 3WA      -0.519500
     13 H1          -0.4010     0.0000    -3.4370 ha         1 3WA       0.138000
     14 H2           2.0030    -0.0000    -3.2950 h4         1 3WA       0.122000
     15 H3           1.9200     0.0050     3.2320 h5         1 3WA      -0.005900
     16 H4           3.0820    -0.0000    -1.1860 hn         1 3WA       0.282800
     17 H5          -2.5770    -0.6610     0.7350 hn         1 3WA       0.287300
     18 H6          -2.5330     0.6380     1.8820 hn         1 3WA       0.287300
@<TRIPOS>BOND
     1     1     2 ar  
     2     1     3 1   
     3     1     8 ar  
     4     2     4 ar  
     5     2     9 1   
     6     3     5 1   
     7     3    10 2   
     8     4     7 ar  
     9     5     6 2   
    10     5    13 1   
    11     6     9 1   
    12     6    14 1   
    13     7    11 ar  
    14     7    15 1   
    15     8    11 ar  
    16     8    12 1   
    17     9    16 1   
    18    12    17 1   
    19    12    18 1   
@<TRIPOS>SUBSTRUCTURE
     1 3WA         1 TEMP              0 ****  ****    0 ROOT
