@<TRIPOS>MOLECULE
molecule
   18    19     1     0     0
SMALL
bcc


@<TRIPOS>ATOM
      1 C1           0.0000     0.0000     0.0000 ca         1 3WA      -0.492200
      2 C2           1.4070     0.0000     0.0000 ca         1 3WA       0.728200
      3 C3          -0.7070    -0.0000    -1.2850 c          1 3WA       0.598900
      4 N6           2.0430     0.0000     1.1690 nb         1 3WA      -0.830000
      5 C7           0.0790     0.0000    -2.4660 cc         1 3WA      -0.322200
      6 C11          1.4240    -0.0000    -2.3800 cd         1 3WA       0.109000
      7 C12          1.3680     0.0000     2.3000 ca         1 3WA       0.762900
      8 C4          -0.6780    -0.0060     1.2310 ca         1 3WA       0.798200
      9 N5           2.0810    -0.0000    -1.1910 na         1 3WA      -0.700700
     10 O8          -1.9260     0.0000    -1.3370 o          1 3WA      -0.576100
     11 N9           0.0500     0.0000     2.3460 nb         1 3WA      -0.825000
     12 N10         -2.0550    -0.0050     1.2820 nv         1 3WA      -1.007500
     13 H1          -0.4010     0.0000    -3.4370 ha         1 3WA       0.165000
     14 H2           2.0030    -0.0000    -3.2950 h4         1 3WA       0.155000
     15 H3           1.9200     0.0050     3.2320 h5         1 3WA       0.061100
     16 H4           3.0820    -0.0000    -1.1860 hn         1 3WA       0.463800
     17 H5          -2.5770    -0.6610     0.7350 hn         1 3WA       0.455800
     18 H6          -2.5330     0.6380     1.8820 hn         1 3WA       0.455800
@<TRIPOS>BOND
     1    11     7 ar
     2    11     8 ar
     3     7     4 ar
     4    12     8 1
     5     8     1 ar
     6     4     2 ar
     7     1     2 ar
     8     1     3 1
     9     2     9 1
    10     3    10 2
    11     3     5 1
    12     9     6 1
    13     6     5 2
    14     5    13 1
    15     6    14 1
    16     7    15 1
    17     9    16 1
    18    12    17 1
    19    12    18 1
@<TRIPOS>SUBSTRUCTURE
     1 3WA         1 TEMP              0 ****  ****    0 ROOT
