@<TRIPOS>MOLECULE
3WC
   34    36     1     0     0
SMALL
bcc


@<TRIPOS>ATOM
      1 C4           0.0000     0.0000     0.0000 ca         1 3WC      -0.243300
      2 C5           1.3620     0.0000     0.0000 ca         1 3WC      -0.021300
      3 C6           2.1350     0.0010    -1.2940 c3         1 3WC       0.057200
      4 C8          -2.6280    -0.0010     2.5660 c3         1 3WC       0.143800
      5 C10         -4.1550     0.0790     2.5050 c3         1 3WC       0.142800
      6 N12         -4.6720    -1.0610     1.7360 n7         1 3WC      -0.584200
      7 C13         -4.1300    -1.0610     0.3700 c3         1 3WC       0.142800
      8 C15         -2.6030    -1.1410     0.4310 c3         1 3WC       0.143800
      9 C11         -0.6980     0.0000     1.2160 ca         1 3WC       0.506200
     10 C20          3.4320     0.0000     1.3140 ca         1 3WC      -0.079000
     11 C22          1.2680    -0.0000     2.4340 ca         1 3WC       0.407600
     12 N10         -2.0860    -0.0000     1.2000 nh         1 3WC      -0.474300
     13 C24          1.9340     0.0000     3.6720 ca         1 3WC      -0.152300
     14 C26          3.2950     0.0000     3.7060 ca         1 3WC      -0.087000
     15 N11         -0.0690     0.0000     2.3720 nb         1 3WC      -0.631000
     16 C2           2.0300     0.0000     1.2410 ca         1 3WC      -0.170300
     17 C28          4.0430    -0.0010     2.5310 ca         1 3WC      -0.110000
     18 H4          -0.5410     0.0770    -0.9350 ha         1 3WC       0.126000
     19 H61C         2.7850     0.8670    -1.3260 hc         1 3WC       0.013367
     20 H62C         1.4440     0.0370    -2.1270 hc         1 3WC       0.013367
     21 H63C         2.7320    -0.9010    -1.3590 hc         1 3WC       0.013367
     22 H82C        -2.2440     0.8560     3.1060 h1         1 3WC       0.028700
     23 H101        -4.4480     1.0030     2.0220 h1         1 3WC       0.011450
     24 H102        -4.5570     0.0470     3.5100 h1         1 3WC       0.011450
     25 H12         -5.6710    -1.0120     1.6980 hn         1 3WC       0.253800
     26 H131        -4.5140    -1.9180    -0.1700 h1         1 3WC       0.011450
     27 H132        -4.4230    -0.1480    -0.1340 h1         1 3WC       0.011450
     28 H151        -2.2010    -1.1100    -0.5750 h1         1 3WC       0.028700
     29 H152        -2.3100    -2.0650     0.9150 h1         1 3WC       0.028700
     30 H20          4.0240    -0.0010     0.4070 ha         1 3WC       0.109000
     31 H28          5.1250    -0.0000     2.5860 ha         1 3WC       0.102000
     32 H24          1.3670     0.0010     4.5950 ha         1 3WC       0.117000
     33 H26          3.8040    -0.0000     4.6630 ha         1 3WC       0.102000
     34 H81C        -2.3350    -0.9140     3.0690 h1         1 3WC       0.028700
@<TRIPOS>BOND
     1     1     2 ar  
     2     1     9 ar  
     3     1    18 1   
     4     2     3 1   
     5     2    16 ar  
     6     3    19 1   
     7     3    20 1   
     8     3    21 1   
     9     4     5 1   
    10     4    12 1   
    11     4    22 1   
    12     4    34 1   
    13     5     6 1   
    14     5    23 1   
    15     5    24 1   
    16     6     7 1   
    17     6    25 1   
    18     7     8 1   
    19     7    26 1   
    20     7    27 1   
    21     8    12 1   
    22     8    28 1   
    23     8    29 1   
    24     9    12 1   
    25     9    15 ar  
    26    10    16 ar  
    27    10    17 ar  
    28    10    30 1   
    29    11    13 ar  
    30    11    15 ar  
    31    11    16 ar  
    32    13    14 ar  
    33    13    32 1   
    34    14    17 ar  
    35    14    33 1   
    36    17    31 1   
@<TRIPOS>SUBSTRUCTURE
     1 3WC         1 TEMP              0 ****  ****    0 ROOT
