@<TRIPOS>MOLECULE
molecule
   34    36     1     0     0
SMALL
bcc


@<TRIPOS>ATOM
      1 C4           0.0000     0.0000     0.0000 ca         1 3WC      -0.264300
      2 C5           1.3620     0.0000     0.0000 ca         1 3WC      -0.017300
      3 C6           2.1350     0.0010    -1.2940 c3         1 3WC      -0.051800
      4 C8          -2.6280    -0.0010     2.5660 c3         1 3WC       0.173800
      5 C10         -4.1550     0.0790     2.5050 c3         1 3WC       0.152800
      6 N12         -4.6720    -1.0610     1.7360 n7         1 3WC      -0.821200
      7 C13         -4.1300    -1.0610     0.3700 c3         1 3WC       0.152800
      8 C15         -2.6030    -1.1410     0.4310 c3         1 3WC       0.173800
      9 C11         -0.6980     0.0000     1.2160 ca         1 3WC       0.633200
     10 C20          3.4320     0.0000     1.3140 ca         1 3WC      -0.101000
     11 C22          1.2680    -0.0000     2.4340 ca         1 3WC       0.451600
     12 N10         -2.0860    -0.0000     1.2000 nh         1 3WC      -0.704300
     13 C24          1.9340     0.0000     3.6720 ca         1 3WC      -0.175300
     14 C26          3.2950     0.0000     3.7060 ca         1 3WC      -0.113000
     15 N11         -0.0690     0.0000     2.3720 nb         1 3WC      -0.745000
     16 C2           2.0300     0.0000     1.2410 ca         1 3WC      -0.177300
     17 C28          4.0430    -0.0010     2.5310 ca         1 3WC      -0.140000
     18 H4          -0.5410     0.0770    -0.9350 ha         1 3WC       0.143000
     19 H61C         2.7850     0.8670    -1.3260 hc         1 3WC       0.049367
     20 H62C         1.4440     0.0370    -2.1270 hc         1 3WC       0.049367
     21 H63C         2.7320    -0.9010    -1.3590 hc         1 3WC       0.049367
     22 H82C        -2.2440     0.8560     3.1060 h1         1 3WC       0.056700
     23 H101        -4.4480     1.0030     2.0220 h1         1 3WC       0.040450
     24 H102        -4.5570     0.0470     3.5100 h1         1 3WC       0.040450
     25 H12         -5.6710    -1.0120     1.6980 hn         1 3WC       0.354800
     26 H131        -4.5140    -1.9180    -0.1700 h1         1 3WC       0.040450
     27 H132        -4.4230    -0.1480    -0.1340 h1         1 3WC       0.040450
     28 H151        -2.2010    -1.1100    -0.5750 h1         1 3WC       0.056700
     29 H152        -2.3100    -2.0650     0.9150 h1         1 3WC       0.056700
     30 H20          4.0240    -0.0010     0.4070 ha         1 3WC       0.131000
     31 H28          5.1250    -0.0000     2.5860 ha         1 3WC       0.129000
     32 H24          1.3670     0.0010     4.5950 ha         1 3WC       0.147000
     33 H26          3.8040    -0.0000     4.6630 ha         1 3WC       0.131000
     34 H81C        -2.3350    -0.9140     3.0690 h1         1 3WC       0.056700
@<TRIPOS>BOND
     1     1     2 ar
     2     1     9 ar
     3     2     3 1
     4     2    16 ar
     5     4     5 1
     6     4    12 1
     7     5     6 1
     8     6     7 1
     9     7     8 1
    10     8    12 1
    11     9    12 1
    12     9    15 ar
    13    10    17 ar
    14    10    16 ar
    15    11    13 ar
    16    11    15 ar
    17    11    16 ar
    18    13    14 ar
    19    14    17 ar
    20     1    18 1
    21     3    19 1
    22     3    20 1
    23     3    21 1
    24     4    34 1
    25     4    22 1
    26     5    23 1
    27     5    24 1
    28     6    25 1
    29     7    26 1
    30     7    27 1
    31     8    28 1
    32     8    29 1
    33    10    30 1
    34    17    31 1
    35    13    32 1
    36    14    33 1
@<TRIPOS>SUBSTRUCTURE
     1 3WC         1 TEMP              0 ****  ****    0 ROOT
