@<TRIPOS>MOLECULE
3WE
   36    40     1     0     0
SMALL
bcc


@<TRIPOS>ATOM
      1 Br1          0.0000     0.0000     0.0000 br         1 3WE      -0.035700
      2 C7           1.8910     0.0000     0.0000 cc         1 3WE       0.037500
      3 C8           2.6950     0.0000     1.1050 cd         1 3WE      -0.282300
      4 N14          4.0130    -0.0290     0.6900 na         1 3WE       0.378600
      5 C5           4.0540    -0.0010    -0.6850 ca         1 3WE      -0.181200
      6 C4           2.7240    -0.0080    -1.1440 ca         1 3WE      -0.099800
      7 C3           2.4670    -0.0160    -2.5220 ca         1 3WE      -0.024000
      8 C6           5.0980     0.0230    -1.6050 ca         1 3WE      -0.121000
      9 C1           4.8200     0.0320    -2.9540 ca         1 3WE      -0.065000
     10 C2           3.5060    -0.0000    -3.4060 ca         1 3WE      -0.131000
     11 C20          5.0980    -0.1050     1.6880 c3         1 3WE       0.143200
     12 N19          5.7550    -1.4050     1.4510 nu         1 3WE      -0.580200
     13 C18          5.6530    -2.1720     2.5790 c2         1 3WE       0.559100
     14 N22          6.1140    -3.3880     2.6700 n2         1 3WE      -0.823100
     15 N17          5.0110    -1.5260     3.6040 nu         1 3WE      -0.492200
     16 C16          4.6630    -0.1840     3.1570 c3         1 3WE       0.163600
     17 C10          5.4760     0.8180     3.9850 c3         1 3WE      -0.066400
     18 C23          4.6560     0.9170     5.2970 c3         1 3WE      -0.050400
     19 C13          3.2430     0.4230     4.9270 c3         1 3WE       0.075000
     20 N12          3.2600     0.0990     3.4930 n          1 3WE      -0.167800
     21 C11          2.3320     0.0390     2.5300 c          1 3WE       0.694700
     22 O21          1.1570     0.0170     2.8420 o          1 3WE      -0.642500
     23 H1           1.4460    -0.0410    -2.8840 ha         1 3WE       0.111000
     24 H2           6.1250     0.0480    -1.2620 ha         1 3WE       0.099000
     25 H3           5.6340     0.0440    -3.6690 ha         1 3WE       0.103000
     26 H4           3.3050     0.0080    -4.4710 ha         1 3WE       0.107000
     27 H5           5.8030     0.7050     1.5440 h2         1 3WE       0.053700
     28 H6           6.2060    -1.6810     0.6010 hn         1 3WE       0.336800
     29 H9           6.5740    -3.8080     1.8870 hn         1 3WE       0.331400
     30 H12          4.8140    -1.9110     4.5060 hn         1 3WE       0.338800
     31 H14          6.4690     0.4340     4.1820 hc         1 3WE       0.038700
     32 H15          5.5190     1.7790     3.4870 hc         1 3WE       0.038700
     33 H16          5.0730     0.1880     5.9810 hc         1 3WE       0.039700
     34 H17          4.5670     1.9710     5.5310 hc         1 3WE       0.039700
     35 H18          2.5810     1.2730     5.0410 h1         1 3WE       0.037700
     36 H19          3.0980    -0.5140     5.4510 h1         1 3WE       0.037700
@<TRIPOS>BOND
     1     1     2 1   
     2     2     3 2   
     3     2     6 1   
     4     3     4 1   
     5     3    21 1   
     6     4     5 1   
     7     4    11 1   
     8     5     6 ar  
     9     5     8 ar  
    10     6     7 ar  
    11     7    10 ar  
    12     7    23 1   
    13     8     9 ar  
    14     8    24 1   
    15     9    10 ar  
    16     9    25 1   
    17    10    26 1   
    18    11    12 1   
    19    11    16 1   
    20    11    27 1   
    21    12    13 1   
    22    12    28 1   
    23    13    14 2   
    24    13    15 1   
    25    14    29 1   
    26    15    16 1   
    27    15    30 1   
    28    16    17 1   
    29    16    20 1   
    30    17    18 1   
    31    17    31 1   
    32    17    32 1   
    33    18    19 1   
    34    18    33 1   
    35    18    34 1   
    36    19    20 1   
    37    19    35 1   
    38    19    36 1   
    39    20    21 1   
    40    21    22 2   
@<TRIPOS>SUBSTRUCTURE
     1 3WE         1 TEMP              0 ****  ****    0 ROOT
