@<TRIPOS>MOLECULE
3WF
   46    49     1     0     0
SMALL
bcc


@<TRIPOS>ATOM
      1 CAB         1.6190    0.2350   -0.1160 c3        1 3WF     -0.079100
      2 CAV         0.1090    0.0610   -0.0460 c3        1 3WF     -0.027000
      3 CAN        -0.3480    0.0580    1.4010 c3        1 3WF     -0.066400
      4 CAK         0.1480   -1.1810    2.1320 c3        1 3WF     -0.071400
      5 CAR        -0.1860   -2.4890    1.4210 c3        1 3WF     -0.009400
      6 CAQ         0.3870   -3.6940    2.1010 ca        1 3WF     -0.099300
      7 CAG         0.5640   -3.7120    3.4920 ca        1 3WF     -0.096000
      8 CAF         1.0450   -4.8350    4.1520 ca        1 3WF     -0.159000
      9 CAO         1.3550   -5.9800    3.4020 ca        1 3WF      0.123100
     10 OAC         1.8260   -7.0690    4.1020 oh        1 3WF     -0.499100
     11 CAH         1.1850   -5.9890    2.0150 ca        1 3WF     -0.217000
     12 CAP         0.7010   -4.8480    1.3620 ca        1 3WF     -0.033300
     13 CAI         0.5690   -4.9180   -0.1210 c3        1 3WF     -0.037100
     14 CAJ        -0.1790   -3.7500   -0.7240 c3        1 3WF     -0.073400
     15 CAS         0.2450   -2.4550   -0.0560 c3        1 3WF     -0.047700
     16 CAT        -0.3930   -1.2450   -0.7030 c3        1 3WF     -0.067700
     17 CAL        -0.2090   -1.0170   -2.1970 c3        1 3WF     -0.068400
     18 CAM        -0.4690    0.4760   -2.4000 c3        1 3WF     -0.103400
     19 CAU        -0.5430    1.1290   -0.9850 c3        1 3WF      0.233900
     20 OAD         0.2470    2.3130   -0.9400 oh        1 3WF     -0.580800
     21 CAE        -1.9200    1.4190   -0.6320 c1        1 3WF     -0.164100
     22 CAA        -3.0570    1.6620   -0.3500 c1        1 3WF     -0.137500
     23 H1          1.9640    0.2020   -1.1770 hc        1 3WF      0.042700
     24 H2          1.8990    1.2270    0.3150 hc        1 3WF      0.042700
     25 H3          2.1460   -0.5620    0.4600 hc        1 3WF      0.042700
     26 H4         -1.4690    0.0930    1.4430 hc        1 3WF      0.049700
     27 H5          0.0390    0.9730    1.9220 hc        1 3WF      0.049700
     28 H6         -0.3310   -1.1830    3.1480 hc        1 3WF      0.043700
     29 H7          1.2560   -1.1150    2.2840 hc        1 3WF      0.043700
     30 H8         -1.3110   -2.6060    1.4430 hc        1 3WF      0.055700
     31 H9          0.3190   -2.8210    4.0910 ha        1 3WF      0.135000
     32 H10         1.1840   -4.8430    5.2420 ha        1 3WF      0.149000
     33 H11         1.9980   -7.7780    3.4660 ho        1 3WF      0.417000
     34 H12         1.4290   -6.8890    1.4330 ha        1 3WF      0.131000
     35 H13         1.6050   -4.9610   -0.5590 hc        1 3WF      0.050700
     36 H14         0.0520   -5.8750   -0.4040 hc        1 3WF      0.050700
     37 H15        -1.2850   -3.8960   -0.6010 hc        1 3WF      0.044200
     38 H16         0.0310   -3.6950   -1.8240 hc        1 3WF      0.044200
     39 H17         1.3650   -2.3740   -0.1160 hc        1 3WF      0.062700
     40 H18        -1.5060   -1.3120   -0.5160 hc        1 3WF      0.053700
     41 H19         0.8280   -1.2870   -2.5180 hc        1 3WF      0.045700
     42 H20        -0.9230   -1.6370   -2.7920 hc        1 3WF      0.045700
     43 H21         0.3650    0.9510   -2.9730 hc        1 3WF      0.054200
     44 H22        -1.4200    0.6440   -2.9600 hc        1 3WF      0.054200
     45 H23        -0.1860    2.9610   -1.5090 ho        1 3WF      0.404000
     46 H24        -4.0650    1.8750   -0.0980 ha        1 3WF      0.165500
@<TRIPOS>BOND
     1    1    2 1
     2    1   23 1
     3    1   24 1
     4    1   25 1
     5    2    3 1
     6    2   16 1
     7    2   19 1
     8    3    4 1
     9    3   26 1
    10    3   27 1
    11    4    5 1
    12    4   28 1
    13    4   29 1
    14    5    6 1
    15    5   15 1
    16    5   30 1
    17    6    7 ar
    18    6   12 ar
    19    7    8 ar
    20    7   31 1
    21    8    9 ar
    22    8   32 1
    23    9   10 1
    24    9   11 ar
    25   10   33 1
    26   11   12 ar
    27   11   34 1
    28   12   13 1
    29   13   14 1
    30   13   35 1
    31   13   36 1
    32   14   15 1
    33   14   37 1
    34   14   38 1
    35   15   16 1
    36   15   39 1
    37   16   17 1
    38   16   40 1
    39   17   18 1
    40   17   41 1
    41   17   42 1
    42   18   19 1
    43   18   43 1
    44   18   44 1
    45   19   20 1
    46   19   21 1
    47   20   45 1
    48   21   22 3
    49   22   46 1
@<TRIPOS>SUBSTRUCTURE
     1 3WF         1 TEMP              0 ****  ****    0 ROOT
