@<TRIPOS>MOLECULE
3WG
   24    26     1     0     0
SMALL
bcc


@<TRIPOS>ATOM
      1 C10         0.0410    0.0690   -0.0490 c3        1 3WG     -0.076700
      2 C12         1.5960    0.0490   -0.0350 c3        1 3WG      0.079600
      3 C11        -0.3310    0.9560    1.1760 c3        1 3WG     -0.076700
      4 C14         1.8660    0.0130    1.5360 c3        1 3WG      0.131800
      5 C13         1.0460    1.3590    1.7760 c3        1 3WG      0.079600
      6 C15        -0.5940    0.7060   -1.2800 c3        1 3WG      0.042700
      7 C16        -1.1840    2.1090    0.6600 c3        1 3WG      0.042700
      8 C17        -1.6150    1.7300   -0.7640 c3        1 3WG      0.030700
      9 C18         2.0670    1.4750   -0.3280 c2        1 3WG     -0.040800
     10 C19         1.7410    2.2510    0.7460 c2        1 3WG     -0.040800
     11 CL1         2.3200   -1.2040   -0.9570 cl        1 3WG     -0.062400
     12 CL2         1.0000    1.9400    3.3890 cl        1 3WG     -0.062400
     13 CL3         1.1980   -1.3820    2.3420 cl        1 3WG     -0.084900
     14 CL4         3.5540    0.1550    1.9460 cl        1 3WG     -0.084900
     15 CL5        -1.3670   -0.4930   -2.3040 cl        1 3WG     -0.149400
     16 CL6        -2.5790    2.3940    1.6870 cl        1 3WG     -0.149400
     17 CL7        -1.6940    3.1370   -1.8060 cl        1 3WG     -0.144400
     18 CL8         2.8520    1.9160   -1.7220 cl        1 3WG      0.002600
     19 CL9         2.0310    3.8690    0.9770 cl        1 3WG      0.002600
     20 H1         -0.3390   -0.9770    0.0960 hc        1 3WG      0.113700
     21 H2         -0.8980    0.3530    1.9360 hc        1 3WG      0.113700
     22 H3          0.1750    1.1940   -1.9340 h1        1 3WG      0.108700
     23 H4         -0.6160    3.0760    0.6670 h1        1 3WG      0.108700
     24 H5         -2.6510    1.2970   -0.7650 h1        1 3WG      0.114700
@<TRIPOS>BOND
     1    1    2 1   
     2    1    3 1   
     3    1    6 1   
     4    1   20 1   
     5    2    4 1   
     6    2    9 1   
     7    2   11 1   
     8    3    5 1   
     9    3    7 1   
    10    3   21 1   
    11    4    5 1   
    12    4   13 1   
    13    4   14 1   
    14    5   10 1   
    15    5   12 1   
    16    6    8 1   
    17    6   15 1   
    18    6   22 1   
    19    7    8 1   
    20    7   16 1   
    21    7   23 1   
    22    8   17 1   
    23    8   24 1   
    24    9   10 2   
    25    9   18 1   
    26   10   19 1   
@<TRIPOS>SUBSTRUCTURE
     1 3WG         1 TEMP              0 ****  ****    0 ROOT
