@<TRIPOS>MOLECULE
molecule
   24    26     1     0     0
SMALL
bcc


@<TRIPOS>ATOM
      1 C10          0.0000     0.0000     0.0000 c3         1 3WG      -0.073700
      2 C12          1.5610     0.0000     0.0000 c3         1 3WG       0.096100
      3 C11         -0.3810     0.8870     1.2180 c3         1 3WG      -0.073700
      4 C14          1.8470     0.0000     1.5460 c3         1 3WG       0.160800
      5 C13          1.0010     1.3200     1.8020 c3         1 3WG       0.096100
      6 C15         -0.4750     0.7600    -1.2530 c3         1 3WG       0.038700
      7 C16         -1.0680     2.1400     0.6430 c3         1 3WG       0.038700
      8 C17         -1.6040     1.6860    -0.7370 c3         1 3WG       0.043700
      9 C18          1.9350     1.4430    -0.3580 c2         1 3WG      -0.025300
     10 C19          1.5910     2.2240     0.7120 c2         1 3WG      -0.025300
     11 Cl1          2.3590    -1.2950    -0.9690 cl         1 3WG      -0.079900
     12 Cl2          0.9990     1.9860     3.4770 cl         1 3WG      -0.079900
     13 Cl3          1.1300    -1.4280     2.3810 cl         1 3WG      -0.096400
     14 Cl4          3.5980     0.1990     1.9240 cl         1 3WG      -0.096400
     15 Cl5         -1.1190    -0.3910    -2.4840 cl         1 3WG      -0.154400
     16 Cl6         -2.4270     2.6570     1.7080 cl         1 3WG      -0.154400
     17 Cl7         -1.8230     3.1000    -1.8340 cl         1 3WG      -0.150400
     18 Cl8          2.6460     1.9690    -1.8530 cl         1 3WG      -0.021900
     19 Cl9          1.8040     3.9440     0.8250 cl         1 3WG      -0.021900
     20 H1          -0.4160    -0.9980     0.0660 hc         1 3WG       0.120700
     21 H2          -0.9960     0.3630     1.9410 hc         1 3WG       0.120700
     22 H3           0.3350     1.3490    -1.6650 h1         1 3WG       0.112700
     23 H4          -0.3490     2.9410     0.5220 h1         1 3WG       0.112700
     24 H5          -2.5290     1.1330    -0.6230 h1         1 3WG       0.112700
@<TRIPOS>BOND
     1    12     5 1
     2    19    10 1
     3     5    10 1
     4     5     4 1
     5     5     3 1
     6    14     4 1
     7    16     7 1
     8    13     4 1
     9    10     9 2
    10     4     2 1
    11     3     7 1
    12     3     1 1
    13     7     8 1
    14     9     2 1
    15     9    18 1
    16     2     1 1
    17     2    11 1
    18     1     6 1
    19     8    17 1
    20     8     6 1
    21     6    15 1
    22     1    20 1
    23     3    21 1
    24     6    22 1
    25     7    23 1
    26     8    24 1
@<TRIPOS>SUBSTRUCTURE
     1 3WG         1 TEMP              0 ****  ****    0 ROOT
