@<TRIPOS>MOLECULE
molecule
   51    54     1     0     0
SMALL
bcc


@<TRIPOS>ATOM
      1 C11          0.0000     0.0000     0.0000 c3         1 3WH       0.118500
      2 C10          1.5320     0.0000     0.0000 c3         1 3WH      -0.116400
      3 C13          4.1820    -0.5470     2.5390 ca         1 3WH       0.953900
      4 C01         -2.7930     5.2590     1.4210 c3         1 3WH      -0.113100
      5 C02         -2.5540     4.1360     0.4080 c3         1 3WH       0.126000
      6 N03         -1.6930     3.1140     1.0070 ns         1 3WH      -0.609900
      7 O05         -1.8200     1.8430    -0.8100 o          1 3WH      -0.659100
      8 N06         -0.4720     1.1340     0.8060 n          1 3WH      -0.514800
      9 C07          0.0240     1.2780     2.1810 c3         1 3WH       0.118500
     10 C08          1.5560     1.2640     2.1570 c3         1 3WH      -0.116400
     11 C09          2.0390     0.0000     1.4440 c3         1 3WH       0.250500
     12 N12          3.5040    -0.0330     1.4470 nu         1 3WH      -0.890900
     13 N14          5.5050    -0.5690     2.5240 nb         1 3WH      -0.789000
     14 C15          6.1870    -1.0580     3.5590 ca         1 3WH       0.640100
     15 C16          5.4810    -1.5480     4.6650 ca         1 3WH      -0.265700
     16 I17          6.4950    -2.3360     6.3200 i          1 3WH      -0.161900
     17 C18          4.1010    -1.5060     4.6350 ca         1 3WH       0.531200
     18 N19          3.4900    -1.0010     3.5740 nb         1 3WH      -0.811000
     19 C20          7.6650    -1.0810     3.5410 cc         1 3WH      -0.254000
     20 C21          8.4630    -2.1450     3.8170 cd         1 3WH      -0.052100
     21 N22          9.7710    -1.7840     3.6970 na         1 3WH      -0.169400
     22 C23          9.8670    -0.4580     3.3340 ca         1 3WH      -0.047200
     23 C24          8.5600     0.0420     3.2140 ca         1 3WH      -0.064800
     24 C25          8.3520     1.3700     2.8490 ca         1 3WH      -0.072000
     25 C26          9.4240     2.1830     2.6040 ca         1 3WH      -0.153000
     26 C27         10.7180     1.6950     2.7180 ca         1 3WH      -0.109000
     27 C28         10.9440     0.3870     3.0860 ca         1 3WH      -0.141000
     28 H1          -0.3620    -0.9260     0.4300 h1         1 3WH       0.056700
     29 H2          -0.3620     0.1020    -1.0160 h1         1 3WH       0.056700
     30 H3           1.8920     0.8860    -0.5080 hc         1 3WH       0.058450
     31 H4           1.8920    -0.8860    -0.5080 hc         1 3WH       0.058450
     32 H5          -3.4230     6.0190     0.9750 hc         1 3WH       0.041700
     33 H6          -1.8440     5.6970     1.7050 hc         1 3WH       0.041700
     34 H7          -3.2810     4.8540     2.2990 hc         1 3WH       0.041700
     35 H8          -3.5020     3.6920     0.1300 h1         1 3WH       0.052200
     36 H9          -2.0730     4.5420    -0.4740 h1         1 3WH       0.052200
     37 H10         -1.3920     3.2070     1.9570 hn         1 3WH       0.311500
     38 H11         -0.3230     2.2170     2.5950 h1         1 3WH       0.056700
     39 H12         -0.3360     0.4540     2.7850 h1         1 3WH       0.056700
     40 H13          1.9330     1.2710     3.1720 hc         1 3WH       0.058450
     41 H14          1.9160     2.1370     1.6260 hc         1 3WH       0.058450
     42 H15          1.6530    -0.8710     1.9590 h1         1 3WH       0.080700
     43 H16          4.0130     0.2930     0.6500 hn         1 3WH       0.460800
     44 H17          3.5240    -1.8750     5.4750 h4         1 3WH       0.036100
     45 H18          8.1130    -3.1330     4.0900 h4         1 3WH       0.179000
     46 H19         10.5500    -2.3940     3.8500 hn         1 3WH       0.300700
     47 H20          7.3440     1.7570     2.7580 ha         1 3WH       0.140000
     48 H21          9.2610     3.2140     2.3130 ha         1 3WH       0.130000
     49 H22         11.5580     2.3500     2.5210 ha         1 3WH       0.131000
     50 H23         11.9580     0.0140     3.1730 ha         1 3WH       0.126000
     51 C04         -1.3460     2.0230     0.2940 c          1 3WH       0.788100
@<TRIPOS>BOND
     1    16    15 1
     2    20    21 1
     3    20    19 2
     4    21    22 1
     5    15    17 ar
     6    15    14 ar
     7    17    18 ar
     8    19    14 1
     9    19    23 1
    10    14    13 ar
    11    22    23 ar
    12    22    27 ar
    13    18     3 ar
    14    13     3 ar
    15    23    24 ar
    16    27    26 ar
    17     3    12 1
    18     2     1 1
    19     2    11 1
    20     4     5 1
    21    12    11 1
    22     5     6 1
    23    24    25 ar
    24    26    25 ar
    25     6    51 1
    26     1     8 1
    27    11    10 1
    28    51     8 1
    29    51     7 2
    30     8     9 1
    31    10     9 1
    32     1    28 1
    33     1    29 1
    34     2    30 1
    35     2    31 1
    36     4    32 1
    37     4    33 1
    38     4    34 1
    39     5    35 1
    40     5    36 1
    41     6    37 1
    42     9    38 1
    43     9    39 1
    44    10    40 1
    45    10    41 1
    46    11    42 1
    47    12    43 1
    48    17    44 1
    49    20    45 1
    50    21    46 1
    51    24    47 1
    52    25    48 1
    53    26    49 1
    54    27    50 1
@<TRIPOS>SUBSTRUCTURE
     1 3WH         1 TEMP              0 ****  ****    0 ROOT
