@<TRIPOS>MOLECULE
molecule
   30    32     1     0     0
SMALL
bcc


@<TRIPOS>ATOM
      1 C2           0.0000     0.0000     0.0000 ca         1 3WJ       0.715200
      2 C3          -0.0490    -0.0000    -2.3910 ca         1 3WJ       0.045600
      3 N6           1.3300     0.0000     0.0000 nb         1 3WJ      -0.792000
      4 C7           0.6850    -1.1130    -2.7800 ca         1 3WJ      -0.060000
      5 C8          -0.1170     1.1110    -3.2210 ca         1 3WJ      -0.060000
      6 C9          -2.8020    -0.0010    -0.0130 cc         1 3WJ      -0.331200
      7 C10         -2.1400     0.0110     1.2410 c          1 3WJ       0.591900
      8 C11          0.0840     0.0050     2.4190 ca         1 3WJ       0.799200
      9 C12          2.0010     0.0000     1.1340 ca         1 3WJ       0.737900
     10 C13          1.3450    -1.1150    -3.9920 ca         1 3WJ      -0.206000
     11 C14          0.5430     1.1090    -4.4330 ca         1 3WJ      -0.206000
     12 N1          -0.7250    -0.0000    -1.1640 na         1 3WJ      -0.482500
     13 C4          -2.0840    -0.0000    -1.1530 cd         1 3WJ       0.121000
     14 C5          -0.6730     0.0050     1.2360 ca         1 3WJ      -0.460200
     15 O15         -2.7670     0.0110     2.2870 o          1 3WJ      -0.553100
     16 N16          1.4120    -0.0000     2.3150 nb         1 3WJ      -0.799000
     17 N17         -0.5300     0.0100     3.6530 nv         1 3WJ      -1.065500
     18 C18          1.2770    -0.0040    -4.8220 ca         1 3WJ       0.217600
     19 N19          1.9480    -0.0060    -6.0490 nv         1 3WJ      -0.916200
     20 H1           0.7380    -1.9800    -2.1330 ha         1 3WJ       0.140500
     21 H2          -0.6900     1.9800    -2.9180 ha         1 3WJ       0.140500
     22 H3          -3.8840    -0.0010    -0.0540 ha         1 3WJ       0.165000
     23 H4           3.0840    -0.0040     1.0950 h5         1 3WJ       0.060100
     24 H5           1.9180    -1.9840    -4.2950 ha         1 3WJ       0.136000
     25 H6           0.4900     1.9760    -5.0810 ha         1 3WJ       0.136000
     26 H7          -2.6120    -0.0090    -2.1000 h4         1 3WJ       0.160000
     27 H8          -0.7340    -0.8550     4.1140 hn         1 3WJ       0.450300
     28 H9          -0.7300     0.8790     4.1090 hn         1 3WJ       0.450300
     29 H10          1.8990     0.7950    -6.6470 hn         1 3WJ       0.432800
     30 H11          2.4770    -0.8080    -6.3290 hn         1 3WJ       0.432800
@<TRIPOS>BOND
     1    16     9 ar  
     2    16     8 ar  
     3     9     3 ar  
     4    17     8 1   
     5     8    14 ar  
     6     3     1 ar  
     7    14     1 ar  
     8    14     7 1   
     9     1    12 1   
    10    15     7 2   
    11     7     6 1   
    12    12     2 1   
    13    12    13 1   
    14     2     5 ar  
    15     2     4 ar  
    16     5    11 ar  
    17     4    10 ar  
    18    11    18 ar  
    19     6    13 2   
    20    10    18 ar  
    21    18    19 1   
    22     4    20 1   
    23     5    21 1   
    24     6    22 1   
    25     9    23 1   
    26    10    24 1   
    27    11    25 1   
    28    13    26 1   
    29    17    27 1   
    30    17    28 1   
    31    19    29 1   
    32    19    30 1   
@<TRIPOS>SUBSTRUCTURE
     1 3WJ         1 TEMP              0 ****  ****    0 ROOT
