@<TRIPOS>MOLECULE
3WJ
   30    32     1     0     0
SMALL
bcc


@<TRIPOS>ATOM
      1 C2           0.0000     0.0000     0.0000 ca         1 3WJ       0.502200
      2 C3          -0.0490    -0.0000    -2.3910 ca         1 3WJ      -0.137400
      3 N6           1.3300     0.0000     0.0000 nb         1 3WJ      -0.683000
      4 C7           0.6850    -1.1130    -2.7800 ca         1 3WJ      -0.014500
      5 C8          -0.1170     1.1110    -3.2210 ca         1 3WJ      -0.014500
      6 C9          -2.8020    -0.0010    -0.0130 cc         1 3WJ      -0.304200
      7 C10         -2.1400     0.0110     1.2410 c          1 3WJ       0.646900
      8 C11          0.0840     0.0050     2.4190 ca         1 3WJ       0.637200
      9 C12          2.0010     0.0000     1.1340 ca         1 3WJ       0.689900
     10 C13          1.3450    -1.1150    -3.9920 ca         1 3WJ      -0.186500
     11 C14          0.5430     1.1090    -4.4330 ca         1 3WJ      -0.186500
     12 N1          -0.7250    -0.0000    -1.1640 na         1 3WJ       0.027500
     13 C4          -2.0840    -0.0000    -1.1530 cd         1 3WJ      -0.040000
     14 C5          -0.6730     0.0050     1.2360 ca         1 3WJ      -0.465200
     15 O15         -2.7670     0.0110     2.2870 o          1 3WJ      -0.597100
     16 N16          1.4120    -0.0000     2.3150 nb         1 3WJ      -0.696000
     17 N17         -0.5300     0.0100     3.6530 nv         1 3WJ      -0.637500
     18 C18          1.2770    -0.0040    -4.8220 ca         1 3WJ       0.074600
     19 N19          1.9480    -0.0060    -6.0490 nv         1 3WJ      -0.434200
     20 H1           0.7380    -1.9800    -2.1330 ha         1 3WJ       0.107500
     21 H2          -0.6900     1.9800    -2.9180 ha         1 3WJ       0.107500
     22 H3          -3.8840    -0.0010    -0.0540 ha         1 3WJ       0.138000
     23 H4           3.0840    -0.0040     1.0950 h5         1 3WJ      -0.004900
     24 H5           1.9180    -1.9840    -4.2950 ha         1 3WJ       0.113500
     25 H6           0.4900     1.9760    -5.0810 ha         1 3WJ       0.113500
     26 H7          -2.6120    -0.0090    -2.1000 h4         1 3WJ       0.129000
     27 H8          -0.7340    -0.8550     4.1140 hn         1 3WJ       0.288800
     28 H9          -0.7300     0.8790     4.1090 hn         1 3WJ       0.288800
     29 H10          1.8990     0.7950    -6.6470 hn         1 3WJ       0.268300
     30 H11          2.4770    -0.8080    -6.3290 hn         1 3WJ       0.268300
@<TRIPOS>BOND
     1     1     3 ar  
     2     1    12 1   
     3     1    14 ar  
     4     2     4 ar  
     5     2     5 ar  
     6     2    12 1   
     7     3     9 ar  
     8     4    10 ar  
     9     4    20 1   
    10     5    11 ar  
    11     5    21 1   
    12     6     7 1   
    13     6    13 2   
    14     6    22 1   
    15     7    14 1   
    16     7    15 2   
    17     8    14 ar  
    18     8    16 ar  
    19     8    17 1   
    20     9    16 ar  
    21     9    23 1   
    22    10    18 ar  
    23    10    24 1   
    24    11    18 ar  
    25    11    25 1   
    26    12    13 1   
    27    13    26 1   
    28    17    27 1   
    29    17    28 1   
    30    18    19 1   
    31    19    29 1   
    32    19    30 1   
@<TRIPOS>SUBSTRUCTURE
     1 3WJ         1 TEMP              0 ****  ****    0 ROOT
