@<TRIPOS>MOLECULE
3WK
   30    32     1     0     0
SMALL
bcc


@<TRIPOS>ATOM
      1 C1           0.0000     0.0000     0.0000 c3         1 3WK      -0.212700
      2 C2           1.5060     0.0000     0.0000 c2         1 3WK       0.461200
      3 C8           1.8170     0.2350     4.6060 ca         1 3WK       0.706900
      4 C10         -0.2440    -0.3940     3.7800 ca         1 3WK       0.587200
      5 C13         -2.0530    -0.8810     5.2900 ca         1 3WK      -0.023400
      6 C14         -1.2220    -1.3600     6.2950 ca         1 3WK      -0.108500
      7 C15         -1.7070    -1.5090     7.5790 ca         1 3WK      -0.095000
      8 C16         -3.0250    -1.1800     7.8650 ca         1 3WK       0.020600
      9 N3           2.2060     0.0000     1.0770 ne         1 3WK      -0.545700
     10 C4          -0.4860    -0.6470     1.2840 c          1 3WK       0.659700
     11 C5           0.2980    -0.3560     2.4870 ca         1 3WK      -0.561200
     12 C6           1.6620    -0.0180     2.3230 ca         1 3WK       0.656300
     13 N7           2.3720     0.2740     3.4100 nb         1 3WK      -0.657000
     14 N9           0.5560    -0.0890     4.8030 nb         1 3WK      -0.710000
     15 O11         -1.4660    -1.3630     1.3140 o          1 3WK      -0.573100
     16 N12         -1.5630    -0.7350     3.9860 nu         1 3WK      -0.268300
     17 C17         -3.8560    -0.7010     6.8620 ca         1 3WK      -0.095000
     18 C18         -3.3720    -0.5520     5.5770 ca         1 3WK      -0.108500
     19 N19         -3.5160    -1.3310     9.1670 nv         1 3WK      -0.561200
     20 H1          -0.3630     1.0200    -0.0520 hc         1 3WK       0.061200
     21 H2          -0.3630    -0.5650    -0.8500 hc         1 3WK       0.061200
     22 H3           1.9860     0.4150    -0.8780 h4         1 3WK      -0.012200
     23 H4           2.4290     0.4750     5.4670 h5         1 3WK      -0.001900
     24 H5          -0.1940    -1.6160     6.0710 ha         1 3WK       0.119500
     25 H6          -1.0590    -1.8820     8.3630 ha         1 3WK       0.108500
     26 H7          -2.1780    -0.8530     3.2050 hn         1 3WK       0.318800
     27 H8          -4.8850    -0.4450     7.0860 ha         1 3WK       0.108500
     28 H9          -4.0200    -0.1780     4.7940 ha         1 3WK       0.119500
     29 H10         -3.4490    -0.5750     9.8180 hn         1 3WK       0.272800
     30 H11         -3.9340    -2.1970     9.4460 hn         1 3WK       0.272800
@<TRIPOS>BOND
     1     1     2 1   
     2     1    10 1   
     3     1    20 1   
     4     1    21 1   
     5     2     9 2   
     6     2    22 1   
     7     3    13 ar  
     8     3    14 ar  
     9     3    23 1   
    10     4    11 ar  
    11     4    14 ar  
    12     4    16 1   
    13     5     6 ar  
    14     5    16 1   
    15     5    18 ar  
    16     6     7 ar  
    17     6    24 1   
    18     7     8 ar  
    19     7    25 1   
    20     8    17 ar  
    21     8    19 1   
    22     9    12 1   
    23    10    11 1   
    24    10    15 2   
    25    11    12 ar  
    26    12    13 ar  
    27    16    26 1   
    28    17    18 ar  
    29    17    27 1   
    30    18    28 1   
    31    19    29 1   
    32    19    30 1   
@<TRIPOS>SUBSTRUCTURE
     1 3WK         1 TEMP              0 ****  ****    0 ROOT
