@<TRIPOS>MOLECULE
molecule
   30    32     1     0     0
SMALL
bcc


@<TRIPOS>ATOM
      1 C4           0.0000     0.0000     0.0000 ca         1 3WL      -0.093000
      2 C5           1.3790     0.0000     0.0000 ca         1 3WL      -0.132500
      3 C6          -2.1730     0.0050     1.2190 cc         1 3WL       0.204900
      4 C7          -2.8200     0.0100     2.4140 cd         1 3WL      -0.336200
      5 C8          -4.2360     0.0220     2.4400 c          1 3WL       0.583900
      6 C10         -6.3360     0.0380     1.0790 ca         1 3WL       0.189100
      7 C13         -4.8120     0.0240    -1.2620 ca         1 3WL      -0.202000
      8 O           -4.8500     0.0270     3.4950 o          1 3WL      -0.524100
      9 C9          -4.9380     0.0270     1.1460 ca         1 3WL      -0.254600
     10 C14         -4.1710     0.0200    -0.0320 ca         1 3WL       0.182100
     11 C12         -6.1960     0.0350    -1.3250 ca         1 3WL       0.153100
     12 O2          -6.8150     0.0370    -2.5340 oh         1 3WL      -0.507100
     13 C11         -6.9590     0.0420    -0.1590 ca         1 3WL       0.010100
     14 O3          -8.3190     0.0520    -0.2360 oh         1 3WL      -0.507100
     15 O4          -7.0770     0.0430     2.2180 oh         1 3WL      -0.485100
     16 O1          -2.8240     0.0090     0.0450 os         1 3WL      -0.212200
     17 C3          -0.6960     0.0000     1.2110 ca         1 3WL      -0.071800
     18 C2           0.0110    -0.0050     2.4150 ca         1 3WL      -0.093000
     19 C1           1.3900    -0.0100     2.4010 ca         1 3WL      -0.132500
     20 C            2.0740     0.0000     1.1980 ca         1 3WL      -0.106000
     21 H1          -0.5430    -0.0000    -0.9380 ha         1 3WL       0.145000
     22 H2           1.9190     0.0040    -0.9390 ha         1 3WL       0.138000
     23 H3          -2.2570     0.0060     3.3390 ha         1 3WL       0.172000
     24 H4          -4.2290     0.0150    -2.1750 ha         1 3WL       0.159000
     25 H5          -6.7660     0.9010    -2.9100 ho         1 3WL       0.433000
     26 H6          -8.6390    -0.8340    -0.2600 ho         1 3WL       0.431000
     27 H7          -7.4480     0.9000     2.3470 ho         1 3WL       0.438000
     28 H8          -0.5220    -0.0090     3.3580 ha         1 3WL       0.145000
     29 H9           1.9400    -0.0120     3.3350 ha         1 3WL       0.138000
     30 H10          3.1570    -0.0020     1.1920 ha         1 3WL       0.135000
@<TRIPOS>BOND
     1     2    20 ar
     2     2     1 ar
     3    20    19 ar
     4     1    17 ar
     5    19    18 ar
     6    17    18 ar
     7    17     3 1
     8     4     3 2
     9     4     5 1
    10     8     5 2
    11     3    16 1
    12     5     9 1
    13    16    10 1
    14     9    10 ar
    15     9     6 ar
    16    15     6 1
    17    10     7 ar
    18     6    13 ar
    19     7    11 ar
    20    13    11 ar
    21    13    14 1
    22    11    12 1
    23     1    21 1
    24     2    22 1
    25     4    23 1
    26     7    24 1
    27    12    25 1
    28    14    26 1
    29    15    27 1
    30    18    28 1
    31    19    29 1
    32    20    30 1
@<TRIPOS>SUBSTRUCTURE
     1 3WL         1 TEMP              0 ****  ****    0 ROOT
