@<TRIPOS>MOLECULE
3WL
   30    32     1     0     0
SMALL
bcc


@<TRIPOS>ATOM
      1 C4         -0.0620   -0.4130    0.0920 ca        1 3WL     -0.090000
      2 C5          1.3300   -0.4130    0.0380 ca        1 3WL     -0.136500
      3 C6         -2.1800   -0.0250    1.3410 cc        1 3WL      0.207900
      4 C7         -2.9060   -0.1950    2.4700 cd        1 3WL     -0.320200
      5 C8         -4.3640   -0.1960    2.4610 c         1 3WL      0.607900
      6 C10        -6.3680    0.0030    0.9310 ca        1 3WL      0.188100
      7 C13        -4.6360    0.3240   -1.2820 ca        1 3WL     -0.207000
      8 O          -5.0300   -0.3410    3.5030 o         1 3WL     -0.588100
      9 C9         -4.9710   -0.0160    1.1410 ca        1 3WL     -0.296600
     10 C14        -4.1390    0.1470    0.0150 ca        1 3WL      0.184100
     11 C12        -6.0240    0.3390   -1.4640 ca        1 3WL      0.197100
     12 O2         -6.4860    0.5130   -2.7400 oh        1 3WL     -0.482100
     13 C11        -6.8910    0.1790   -0.3630 ca        1 3WL     -0.029900
     14 O3         -8.2440    0.2050   -0.6380 oh        1 3WL     -0.515100
     15 O4         -7.3090   -0.1410    1.9120 oh        1 3WL     -0.519100
     16 O1         -2.7550    0.1490    0.0910 os        1 3WL     -0.219200
     17 C3         -0.7190   -0.0110    1.2640 ca        1 3WL     -0.082800
     18 C2          0.0330    0.4030    2.3740 ca        1 3WL     -0.090000
     19 C1          1.4250    0.4010    2.3110 ca        1 3WL     -0.136500
     20 C           2.0750   -0.0070    1.1460 ca        1 3WL     -0.105000
     21 H1         -0.6530   -0.7280   -0.7820 ha        1 3WL      0.146000
     22 H2          1.8410   -0.7330   -0.8830 ha        1 3WL      0.140000
     23 H3         -2.4180   -0.3480    3.4440 ha        1 3WL      0.172000
     24 H4         -3.9590    0.4510   -2.1370 ha        1 3WL      0.176000
     25 H5         -7.4570    0.5050   -2.7160 ho        1 3WL      0.449000
     26 H6         -8.7190    0.0950    0.2000 ho        1 3WL      0.450000
     27 H7         -6.8770   -0.2560    2.7770 ho        1 3WL      0.478000
     28 H8         -0.4750    0.7350    3.2920 ha        1 3WL      0.146000
     29 H9          2.0110    0.7250    3.1840 ha        1 3WL      0.140000
     30 H10         3.1740   -0.0080    1.1000 ha        1 3WL      0.138000
@<TRIPOS>BOND
     1    1    2 ar  
     2    1   17 ar  
     3    1   21 1   
     4    2   20 ar  
     5    2   22 1   
     6    3    4 2   
     7    3   16 1   
     8    3   17 1   
     9    4    5 1   
    10    4   23 1   
    11    5    8 2   
    12    5    9 1   
    13    6    9 ar  
    14    6   13 ar  
    15    6   15 1   
    16    7   10 ar  
    17    7   11 ar  
    18    7   24 1   
    19    9   10 ar  
    20   10   16 1   
    21   11   12 1   
    22   11   13 ar  
    23   12   25 1   
    24   13   14 1   
    25   14   26 1   
    26   15   27 1   
    27   17   18 ar  
    28   18   19 ar  
    29   18   28 1   
    30   19   20 ar  
    31   19   29 1   
    32   20   30 1   
@<TRIPOS>SUBSTRUCTURE
     1 3WL         1 TEMP              0 ****  ****    0 ROOT
