@<TRIPOS>MOLECULE
3WM
  120   119     1     0     0
SMALL
bcc


@<TRIPOS>ATOM
      1 CBF        -0.5940   -0.9200    0.3670 c3        1 3WM     -0.092100
      2 CBE         0.9080   -0.9120    0.2410 c3        1 3WM     -0.080400
      3 CBD         1.5770   -0.7410    1.5880 c3        1 3WM     -0.079400
      4 CBC         3.0850   -0.7330    1.4560 c3        1 3WM     -0.079400
      5 CBB         3.7540   -0.5610    2.8040 c3        1 3WM     -0.079400
      6 CBA         5.2620   -0.5520    2.6720 c3        1 3WM     -0.079400
      7 CAZ         5.9300   -0.3800    4.0190 c3        1 3WM     -0.079400
      8 CAY         7.4380   -0.3680    3.8860 c3        1 3WM     -0.076400
      9 CAX         8.1040   -0.1960    5.2370 c3        1 3WM     -0.048200
     10 CAW         9.5820   -0.1980    5.1200 c2        1 3WM     -0.170200
     11 CAV        10.3740    0.6780    5.7450 c2        1 3WM     -0.171200
     12 CAU        11.8540    0.6500    5.6620 c3        1 3WM     -0.048200
     13 CAT        12.4240    2.0350    5.4260 c3        1 3WM     -0.076400
     14 CAS        13.9360    1.9990    5.3670 c3        1 3WM     -0.079400
     15 CAR        14.5070    3.3810    5.1280 c3        1 3WM     -0.077400
     16 CAQ        16.0190    3.3450    5.0710 c3        1 3WM     -0.079400
     17 CAP        16.5870    4.7280    4.8410 c3        1 3WM     -0.102400
     18 CAO        18.1080    4.6590    4.6990 c3        1 3WM      0.335900
     19 OAD        18.5350    4.0450    3.5130 oh        1 3WM     -0.632800
     20 OAN        18.5630    6.0060    4.6450 os        1 3WM     -0.453600
     21 CAM        19.9810    6.1640    4.6200 c3        1 3WM      0.109100
     22 CAL        20.4940    6.0430    3.1800 c3        1 3WM      0.121400
     23 OAK        19.5010    6.3970    2.2390 oh        1 3WM     -0.607800
     24 CBI        20.2620    7.5470    5.2180 c3        1 3WM      0.132400
     25 OBJ        19.9570    8.5210    4.2220 os        1 3WM     -0.466600
     26 CBK        20.0670    9.8600    4.6860 c3        1 3WM      0.331900
     27 OCC        21.4460   10.0830    4.8400 oh        1 3WM     -0.622800
     28 CBL        19.4070   10.7480    3.6330 c3        1 3WM     -0.105400
     29 CBM        19.3960   12.1890    4.0920 c3        1 3WM     -0.080400
     30 CBN        18.8300   13.0960    3.0210 c3        1 3WM     -0.078400
     31 CBO        18.7930   14.5360    3.4890 c3        1 3WM     -0.079400
     32 CBP        18.2350   15.4460    2.4150 c3        1 3WM     -0.077400
     33 CBQ        18.1880   16.8840    2.8890 c3        1 3WM     -0.049200
     34 CBR        17.6440   17.7980    1.8570 c2        1 3WM     -0.175200
     35 CBS        17.4210   19.1000    2.0620 c2        1 3WM     -0.172200
     36 CBT        17.6850   19.7880    3.3470 c3        1 3WM     -0.049200
     37 CBU        17.3930   21.2730    3.2760 c3        1 3WM     -0.077400
     38 CBV        17.6710   21.9490    4.6010 c3        1 3WM     -0.079400
     39 CBW        17.3750   23.4320    4.5340 c3        1 3WM     -0.079400
     40 CBX        17.6510   24.1080    5.8590 c3        1 3WM     -0.079400
     41 CBY        17.3550   25.5910    5.7930 c3        1 3WM     -0.079400
     42 CBZ        17.6290   26.2670    7.1190 c3        1 3WM     -0.079400
     43 CCA        17.3330   27.7500    7.0530 c3        1 3WM     -0.080400
     44 CCB        17.6050   28.4270    8.3710 c3        1 3WM     -0.092100
     45 H1         -0.9300   -1.7590    1.0240 hc        1 3WM      0.032700
     46 H2         -0.9580    0.0380    0.8100 hc        1 3WM      0.032700
     47 H3         -1.0670   -1.0470   -0.6370 hc        1 3WM      0.032700
     48 H4          1.2520   -1.8710   -0.2290 hc        1 3WM      0.038700
     49 H5          1.2240   -0.0790   -0.4420 hc        1 3WM      0.038700
     50 H6          1.2640   -1.5730    2.2710 hc        1 3WM      0.039700
     51 H7          1.2350    0.2190    2.0580 hc        1 3WM      0.039700
     52 H8          3.4270   -1.6920    0.9860 hc        1 3WM      0.039700
     53 H9          3.3990    0.1000    0.7720 hc        1 3WM      0.039700
     54 H10         3.4410   -1.3940    3.4870 hc        1 3WM      0.039700
     55 H11         3.4120    0.3990    3.2730 hc        1 3WM      0.039700
     56 H12         5.6040   -1.5120    2.2030 hc        1 3WM      0.039700
     57 H13         5.5750    0.2800    1.9870 hc        1 3WM      0.039700
     58 H14         5.5860    0.5800    4.4890 hc        1 3WM      0.039700
     59 H15         5.6180   -1.2120    4.7030 hc        1 3WM      0.039700
     60 H16         7.7820   -1.3270    3.4160 hc        1 3WM      0.041700
     61 H17         7.7500    0.4660    3.2040 hc        1 3WM      0.041700
     62 H18         7.7950   -1.0400    5.9140 hc        1 3WM      0.045700
     63 H19         7.7430    0.7550    5.7130 hc        1 3WM      0.045700
     64 H20        10.0010   -0.9920    4.4790 ha        1 3WM      0.120000
     65 H21         9.9540    1.4780    6.3780 ha        1 3WM      0.120000
     66 H22        12.1940   -0.0390    4.8440 hc        1 3WM      0.045700
     67 H23        12.2610    0.2410    6.6280 hc        1 3WM      0.045700
     68 H24        12.0190    2.4480    4.4650 hc        1 3WM      0.042200
     69 H25        12.0950    2.7240    6.2480 hc        1 3WM      0.042200
     70 H26        14.3410    1.5860    6.3290 hc        1 3WM      0.041200
     71 H27        14.2660    1.3100    4.5460 hc        1 3WM      0.041200
     72 H28        14.1780    4.0720    5.9490 hc        1 3WM      0.040200
     73 H29        14.1040    3.7930    4.1660 hc        1 3WM      0.040200
     74 H30        16.4230    2.9250    6.0300 hc        1 3WM      0.048200
     75 H31        16.3550    2.6660    4.2430 hc        1 3WM      0.048200
     76 H32        16.3360    5.4050    5.6970 hc        1 3WM      0.058700
     77 H33        16.1520    5.1780    3.9120 hc        1 3WM      0.058700
     78 H34        18.5910    4.0820    5.5360 h2        1 3WM      0.067700
     79 H35        18.2820    4.6120    2.7680 ho        1 3WM      0.436000
     80 H36        20.4730    5.3880    5.2680 h1        1 3WM      0.054700
     81 H37        20.7440    4.9750    2.9400 h1        1 3WM      0.053200
     82 H38        21.3970    6.6950    3.0450 h1        1 3WM      0.053200
     83 H39        19.1020    7.2240    2.5430 ho        1 3WM      0.423000
     84 H40        21.3460    7.6310    5.4930 h1        1 3WM      0.047700
     85 H41        19.6200    7.7150    6.1230 h1        1 3WM      0.047700
     86 H42        19.6200    9.9980    5.7100 h2        1 3WM      0.078700
     87 H43        21.8630    9.9920    3.9740 ho        1 3WM      0.413000
     88 H44        19.9640   10.6510    2.6650 hc        1 3WM      0.060200
     89 H45        18.3630   10.3810    3.4610 hc        1 3WM      0.060200
     90 H46        18.7840   12.2820    5.0280 hc        1 3WM      0.047700
     91 H47        20.4420   12.5040    4.3480 hc        1 3WM      0.047700
     92 H48        17.7930   12.7610    2.7520 hc        1 3WM      0.041700
     93 H49        19.4540   13.0180    2.0920 hc        1 3WM      0.041700
     94 H50        18.1640   14.6150    4.4140 hc        1 3WM      0.041200
     95 H51        19.8290   14.8690    3.7640 hc        1 3WM      0.041200
     96 H52        18.8690   15.3730    1.4930 hc        1 3WM      0.042200
     97 H53        17.2030   15.1090    2.1350 hc        1 3WM      0.042200
     98 H54        17.5610   16.9530    3.8200 hc        1 3WM      0.047200
     99 H55        19.2240   17.2200    3.1730 hc        1 3WM      0.047200
    100 H56        17.4250   17.3430    0.8770 ha        1 3WM      0.122000
    101 H57        17.0170   19.7290    1.2520 ha        1 3WM      0.122000
    102 H58        17.0580   19.3200    4.1560 hc        1 3WM      0.047700
    103 H59        18.7600   19.6310    3.6420 hc        1 3WM      0.047700
    104 H60        16.3200   21.4310    2.9900 hc        1 3WM      0.041700
    105 H61        18.0220   21.7420    2.4740 hc        1 3WM      0.041700
    106 H62        18.7440   21.7920    4.8860 hc        1 3WM      0.039700
    107 H63        17.0440   21.4770    5.4030 hc        1 3WM      0.039700
    108 H64        18.0030   23.9040    3.7330 hc        1 3WM      0.039700
    109 H65        16.3020   23.5890    4.2480 hc        1 3WM      0.039700
    110 H66        17.0240   23.6350    6.6610 hc        1 3WM      0.039700
    111 H67        18.7250   23.9520    6.1450 hc        1 3WM      0.039700
    112 H68        16.2810   25.7470    5.5060 hc        1 3WM      0.039700
    113 H69        17.9820   26.0640    4.9920 hc        1 3WM      0.039700
    114 H70        17.0020   25.7940    7.9190 hc        1 3WM      0.039700
    115 H71        18.7030   26.1110    7.4050 hc        1 3WM      0.039700
    116 H72        17.9600   28.2210    6.2510 hc        1 3WM      0.038700
    117 H73        16.2590   27.9040    6.7640 hc        1 3WM      0.038700
    118 H74        18.6760   28.3060    8.6640 hc        1 3WM      0.032700
    119 H75        17.3800   29.5190    8.3010 hc        1 3WM      0.032700
    120 H76        16.9700   27.9880    9.1790 hc        1 3WM      0.032700
@<TRIPOS>BOND
     1    1    2 1   
     2    1   45 1   
     3    1   46 1   
     4    1   47 1   
     5    2    3 1   
     6    2   48 1   
     7    2   49 1   
     8    3    4 1   
     9    3   50 1   
    10    3   51 1   
    11    4    5 1   
    12    4   52 1   
    13    4   53 1   
    14    5    6 1   
    15    5   54 1   
    16    5   55 1   
    17    6    7 1   
    18    6   56 1   
    19    6   57 1   
    20    7    8 1   
    21    7   58 1   
    22    7   59 1   
    23    8    9 1   
    24    8   60 1   
    25    8   61 1   
    26    9   10 1   
    27    9   62 1   
    28    9   63 1   
    29   10   11 2   
    30   10   64 1   
    31   11   12 1   
    32   11   65 1   
    33   12   13 1   
    34   12   66 1   
    35   12   67 1   
    36   13   14 1   
    37   13   68 1   
    38   13   69 1   
    39   14   15 1   
    40   14   70 1   
    41   14   71 1   
    42   15   16 1   
    43   15   72 1   
    44   15   73 1   
    45   16   17 1   
    46   16   74 1   
    47   16   75 1   
    48   17   18 1   
    49   17   76 1   
    50   17   77 1   
    51   18   19 1   
    52   18   20 1   
    53   18   78 1   
    54   19   79 1   
    55   20   21 1   
    56   21   22 1   
    57   21   24 1   
    58   21   80 1   
    59   22   23 1   
    60   22   81 1   
    61   22   82 1   
    62   23   83 1   
    63   24   25 1   
    64   24   84 1   
    65   24   85 1   
    66   25   26 1   
    67   26   27 1   
    68   26   28 1   
    69   26   86 1   
    70   27   87 1   
    71   28   29 1   
    72   28   88 1   
    73   28   89 1   
    74   29   30 1   
    75   29   90 1   
    76   29   91 1   
    77   30   31 1   
    78   30   92 1   
    79   30   93 1   
    80   31   32 1   
    81   31   94 1   
    82   31   95 1   
    83   32   33 1   
    84   32   96 1   
    85   32   97 1   
    86   33   34 1   
    87   33   98 1   
    88   33   99 1   
    89   34   35 2   
    90   34  100 1   
    91   35   36 1   
    92   35  101 1   
    93   36   37 1   
    94   36  102 1   
    95   36  103 1   
    96   37   38 1   
    97   37  104 1   
    98   37  105 1   
    99   38   39 1   
   100   38  106 1   
   101   38  107 1   
   102   39   40 1   
   103   39  108 1   
   104   39  109 1   
   105   40   41 1   
   106   40  110 1   
   107   40  111 1   
   108   41   42 1   
   109   41  112 1   
   110   41  113 1   
   111   42   43 1   
   112   42  114 1   
   113   42  115 1   
   114   43   44 1   
   115   43  116 1   
   116   43  117 1   
   117   44  118 1   
   118   44  119 1   
   119   44  120 1   
@<TRIPOS>SUBSTRUCTURE
     1 3WM         1 TEMP              0 ****  ****    0 ROOT
