@<TRIPOS>MOLECULE
molecule
  120   119     1     0     0
SMALL
bcc


@<TRIPOS>ATOM
      1 CBF          0.0000     0.0000     0.0000 c3         1 3WM      -0.092100
      2 CBE          1.5290     0.0000     0.0000 c3         1 3WM      -0.084400
      3 CBD          2.0400     0.0000     1.4420 c3         1 3WM      -0.081400
      4 CBC          3.5700    -0.0000     1.4410 c3         1 3WM      -0.082400
      5 CBB          4.0810    -0.0000     2.8840 c3         1 3WM      -0.082400
      6 CBA          5.6110    -0.0010     2.8830 c3         1 3WM      -0.081400
      7 CAZ          6.1210     0.0000     4.3260 c3         1 3WM      -0.082400
      8 CAY          7.6510    -0.0010     4.3250 c3         1 3WM      -0.078400
      9 CAX          8.1620    -0.0000     5.7680 c3         1 3WM      -0.048200
     10 CAW          9.6680    -0.0000     5.7670 c2         1 3WM      -0.175200
     11 CAV         10.3240     0.9290     6.4180 c2         1 3WM      -0.178200
     12 CAU         11.8310     0.9280     6.4170 c3         1 3WM      -0.047200
     13 CAT         12.3410     2.2830     5.9220 c3         1 3WM      -0.077400
     14 CAS         13.8710     2.2830     5.9220 c3         1 3WM      -0.083400
     15 CAR         14.3810     3.6380     5.4280 c3         1 3WM      -0.078400
     16 CAQ         15.9110     3.6380     5.4280 c3         1 3WM      -0.084400
     17 CAP         16.4220     4.9930     4.9330 c3         1 3WM      -0.082400
     18 CAO         17.9520     4.9930     4.9340 c3         1 3WM       0.338900
     19 OAD         18.4280     4.0400     3.9810 oh         1 3WM      -0.622800
     20 OAN         18.4280     6.2940     4.5840 os         1 3WM      -0.391600
     21 CAM         19.8480     6.4340     4.6640 c3         1 3WM       0.154100
     22 CAL         20.4730     6.0710     3.3150 c3         1 3WM       0.121400
     23 OAK         20.0550     7.0140     2.3270 oh         1 3WM      -0.567800
     24 CBI         20.1990     7.8810     5.0160 c3         1 3WM       0.143400
     25 OBJ         19.7940     8.7410     3.9490 os         1 3WM      -0.374600
     26 CBK         20.0780    10.1230     4.1790 c3         1 3WM       0.334900
     27 OCC         21.4900    10.3360     4.1180 oh         1 3WM      -0.620800
     28 CBL         19.3880    10.9700     3.1070 c3         1 3WM      -0.072400
     29 CBM         19.5880    12.4540     3.4220 c3         1 3WM      -0.084400
     30 CBN         18.8980    13.3010     2.3510 c3         1 3WM      -0.077400
     31 CBO         19.0980    14.7850     2.6670 c3         1 3WM      -0.087400
     32 CBP         18.4090    15.6310     1.5950 c3         1 3WM      -0.034400
     33 CBQ         18.6080    17.1150     1.9110 c3         1 3WM      -0.150200
     34 CBR         17.9290    17.9490     0.8550 c2         1 3WM      -0.333200
     35 CBS         17.0830    18.8860     1.2050 c2         1 3WM      -0.347200
     36 CBT         16.9170    19.2470     2.6590 c3         1 3WM      -0.143200
     37 CBU         17.1200    20.7530     2.8370 c3         1 3WM      -0.034400
     38 CBV         16.9510    21.1190     4.3130 c3         1 3WM      -0.087400
     39 CBW         17.1530    22.6260     4.4920 c3         1 3WM      -0.080400
     40 CBX         16.9850    22.9910     5.9680 c3         1 3WM      -0.081400
     41 CBY         17.1860    24.4970     6.1460 c3         1 3WM      -0.082400
     42 CBZ         17.0180    24.8630     7.6220 c3         1 3WM      -0.081400
     43 CCA         17.2200    26.3690     7.8000 c3         1 3WM      -0.084400
     44 CCB         17.0510    26.7350     9.2760 c3         1 3WM      -0.092100
     45 H1          -0.3610     0.8990     0.4840 hc         1 3WM       0.032367
     46 H2          -0.3610    -0.8690     0.5370 hc         1 3WM       0.032367
     47 H3          -0.3610    -0.0300    -1.0210 hc         1 3WM       0.032367
     48 H4           1.8900    -0.8840    -0.5110 hc         1 3WM       0.039700
     49 H5           1.8900     0.8840    -0.5110 hc         1 3WM       0.039700
     50 H6           1.6790     0.8850     1.9530 hc         1 3WM       0.040700
     51 H7           1.6790    -0.8840     1.9530 hc         1 3WM       0.040700
     52 H8           3.9310    -0.8850     0.9300 hc         1 3WM       0.041200
     53 H9           3.9310     0.8840     0.9300 hc         1 3WM       0.041200
     54 H10          3.7190    -0.8850     3.3950 hc         1 3WM       0.040700
     55 H11          3.7200     0.8840     3.3950 hc         1 3WM       0.040700
     56 H12          5.9720     0.8830     2.3710 hc         1 3WM       0.041700
     57 H13          5.9720    -0.8860     2.3730 hc         1 3WM       0.041700
     58 H14          5.7610     0.8860     4.8350 hc         1 3WM       0.040700
     59 H15          5.7590    -0.8830     4.8380 hc         1 3WM       0.040700
     60 H16          8.0120     0.8830     3.8130 hc         1 3WM       0.043200
     61 H17          8.0110    -0.8860     3.8150 hc         1 3WM       0.043200
     62 H18          7.8010     0.8850     6.2780 hc         1 3WM       0.045700
     63 H19          7.8010    -0.8840     6.2790 hc         1 3WM       0.045700
     64 H20         10.2090    -0.7690     5.2290 ha         1 3WM       0.124000
     65 H21          9.7820     1.6980     6.9560 ha         1 3WM       0.124000
     66 H22         12.1920     0.1450     5.7610 hc         1 3WM       0.045200
     67 H23         12.1930     0.7520     7.4230 hc         1 3WM       0.045200
     68 H24         11.9800     3.0660     6.5780 hc         1 3WM       0.044200
     69 H25         11.9800     2.4600     4.9160 hc         1 3WM       0.044200
     70 H26         14.2320     2.1070     6.9280 hc         1 3WM       0.040700
     71 H27         14.2320     1.5000     5.2670 hc         1 3WM       0.040700
     72 H28         14.0200     4.4210     6.0840 hc         1 3WM       0.044700
     73 H29         14.0200     3.8150     4.4220 hc         1 3WM       0.044700
     74 H30         16.2720     3.4610     6.4340 hc         1 3WM       0.041700
     75 H31         16.2720     2.8550     4.7720 hc         1 3WM       0.041700
     76 H32         16.0610     5.7760     5.5890 hc         1 3WM       0.065700
     77 H33         16.0610     5.1700     3.9280 hc         1 3WM       0.065700
     78 H34         18.3130     4.7290     5.9200 h2         1 3WM       0.011700
     79 H35         18.8260     3.3150     4.4330 ho         1 3WM       0.402000
     80 H36         20.2330     5.7720     5.4300 h1         1 3WM       0.037700
     81 H37         21.5530     6.0920     3.4000 h1         1 3WM       0.027200
     82 H38         20.1530     5.0770     3.0240 h1         1 3WM       0.027200
     83 H39         20.3720     6.7450     1.4810 ho         1 3WM       0.390000
     84 H40         19.6860     8.1670     5.9260 h1         1 3WM       0.027700
     85 H41         21.2690     7.9670     5.1620 h1         1 3WM       0.027700
     86 H42         19.7110    10.4090     5.1570 h2         1 3WM       0.010700
     87 H43         21.8000    10.6300     4.9580 ho         1 3WM       0.396000
     88 H44         18.3290    10.7430     3.0940 hc         1 3WM       0.067200
     89 H45         19.8170    10.7460     2.1380 hc         1 3WM       0.067200
     90 H46         20.6470    12.6810     3.4350 hc         1 3WM       0.041700
     91 H47         19.1590    12.6790     4.3910 hc         1 3WM       0.041700
     92 H48         17.8390    13.0730     2.3380 hc         1 3WM       0.047700
     93 H49         19.3270    13.0770     1.3820 hc         1 3WM       0.047700
     94 H50         18.6680    15.0090     3.6360 hc         1 3WM       0.039700
     95 H51         20.1570    15.0120     2.6810 hc         1 3WM       0.039700
     96 H52         18.8390    15.4060     0.6260 hc         1 3WM       0.059200
     97 H53         17.3490    15.4040     1.5810 hc         1 3WM       0.059200
     98 H54         18.1790    17.3390     2.8800 hc         1 3WM       0.034200
     99 H55         19.6670    17.3420     1.9240 hc         1 3WM       0.034200
    100 H56         18.8260    18.3000     1.3510 ha         1 3WM       0.330000
    101 H57         16.4200    18.3200     1.8480 ha         1 3WM       0.329000
    102 H58         17.6510    18.7120     3.2500 hc         1 3WM       0.033200
    103 H59         15.9210    18.9760     2.9870 hc         1 3WM       0.033200
    104 H60         16.3870    21.2880     2.2460 hc         1 3WM       0.058200
    105 H61         18.1160    21.0240     2.5100 hc         1 3WM       0.058200
    106 H62         15.9550    20.8470     4.6410 hc         1 3WM       0.040700
    107 H63         17.6840    20.5840     4.9040 hc         1 3WM       0.040700
    108 H64         18.1490    22.8980     4.1630 hc         1 3WM       0.045200
    109 H65         16.4190    23.1610     3.9010 hc         1 3WM       0.045200
    110 H66         17.7180    22.4560     6.5580 hc         1 3WM       0.041200
    111 H67         15.9890    22.7190     6.2960 hc         1 3WM       0.041200
    112 H68         16.4520    25.0320     5.5550 hc         1 3WM       0.042200
    113 H69         18.1820    24.7690     5.8180 hc         1 3WM       0.042200
    114 H70         16.0220    24.5900     7.9500 hc         1 3WM       0.040700
    115 H71         17.7520    24.3270     8.2120 hc         1 3WM       0.040700
    116 H72         18.2160    26.6410     7.4720 hc         1 3WM       0.040700
    117 H73         16.4870    26.9040     7.2090 hc         1 3WM       0.040700
    118 H74         16.0600    26.4500     9.6080 hc         1 3WM       0.032700
    119 H75         17.7940    26.2120     9.8650 hc         1 3WM       0.032700
    120 H76         17.1790    27.8040     9.4000 hc         1 3WM       0.032700
@<TRIPOS>BOND
     1     5     6 1
     2     5     4 1
     3     3     4 1
     4     3     2 1
     5     6     7 1
     6     1     2 1
     7     7     8 1
     8     8     9 1
     9    10     9 1
    10    10    11 2
    11    12    11 1
    12    12    13 1
    13    14    13 1
    14    14    15 1
    15    17    18 1
    16    17    16 1
    17    19    18 1
    18    18    20 1
    19    15    16 1
    20    20    21 1
    21    21    22 1
    22    21    24 1
    23    22    23 1
    24    24    25 1
    25    28    26 1
    26    28    29 1
    27    25    26 1
    28    30    31 1
    29    30    29 1
    30    27    26 1
    31    31    32 1
    32    34    35 2
    33    34    33 1
    34    32    33 1
    35    35    36 1
    36    36    37 1
    37    37    38 1
    38    38    39 1
    39    39    40 1
    40    40    41 1
    41    41    42 1
    42    42    43 1
    43    43    44 1
    44     1    45 1
    45     1    46 1
    46     1    47 1
    47     2    48 1
    48     2    49 1
    49     3    50 1
    50     3    51 1
    51     4    52 1
    52     4    53 1
    53     5    54 1
    54     5    55 1
    55     6    56 1
    56     6    57 1
    57     7    58 1
    58     7    59 1
    59     8    60 1
    60     8    61 1
    61     9    62 1
    62     9    63 1
    63    10    64 1
    64    11    65 1
    65    12    66 1
    66    12    67 1
    67    13    68 1
    68    13    69 1
    69    14    70 1
    70    14    71 1
    71    15    72 1
    72    15    73 1
    73    16    74 1
    74    16    75 1
    75    17    76 1
    76    17    77 1
    77    18    78 1
    78    19    79 1
    79    21    80 1
    80    22    81 1
    81    22    82 1
    82    23    83 1
    83    24    84 1
    84    24    85 1
    85    26    86 1
    86    27    87 1
    87    28    88 1
    88    28    89 1
    89    29    90 1
    90    29    91 1
    91    30    92 1
    92    30    93 1
    93    31    94 1
    94    31    95 1
    95    32    96 1
    96    32    97 1
    97    33    98 1
    98    33    99 1
    99    34   100 1
   100    35   101 1
   101    36   102 1
   102    36   103 1
   103    37   104 1
   104    37   105 1
   105    38   106 1
   106    38   107 1
   107    39   108 1
   108    39   109 1
   109    40   110 1
   110    40   111 1
   111    41   112 1
   112    41   113 1
   113    42   114 1
   114    42   115 1
   115    43   116 1
   116    43   117 1
   117    44   118 1
   118    44   119 1
   119    44   120 1
@<TRIPOS>SUBSTRUCTURE
     1 3WM         1 TEMP              0 ****  ****    0 ROOT
