@<TRIPOS>MOLECULE
3WN
   30    32     1     0     0
SMALL
bcc


@<TRIPOS>ATOM
      1 C1           0.0000     0.0000     0.0000 cc         1 3WN      -0.297200
      2 C2           1.3470     0.0000     0.0000 cd         1 3WN      -0.039000
      3 C8           1.5920    -0.0030     4.6740 ca         1 3WN       0.736900
      4 C10         -0.5180    -0.0100     3.7380 ca         1 3WN       0.606200
      5 C13         -2.4650    -0.1250     5.1470 ca         1 3WN      -0.010400
      6 C14         -1.8370    -0.8850     6.1240 ca         1 3WN      -0.116000
      7 C15         -3.6100    -0.3590     7.6600 ca         1 3WN      -0.128000
      8 C16         -4.2380     0.3870     6.6820 ca         1 3WN      -0.081000
      9 N3           2.0790     0.0000     1.1440 na         1 3WN      -0.177700
     10 C4          -0.7090    -0.0010     1.2290 c          1 3WN       0.668900
     11 C5           0.0790    -0.0070     2.4670 ca         1 3WN      -0.528200
     12 C6           1.4830    -0.0010     2.3770 ca         1 3WN       0.538200
     13 N7           2.1930    -0.0020     3.5010 nb         1 3WN      -0.751000
     14 N9           0.2790    -0.0040     4.8050 nb         1 3WN      -0.745000
     15 O11         -1.9290     0.0040     1.2550 o          1 3WN      -0.640100
     16 N12         -1.8910    -0.0050     3.8780 nu         1 3WN      -0.278300
     17 C17         -2.4090    -1.0020     7.3820 ca         1 3WN       0.046600
     18 C18         -3.6680     0.5110     5.4300 ca         1 3WN      -0.129000
     19 N19         -1.7810    -1.7670     8.3680 nv         1 3WN      -0.560200
     20 H1          -0.5420    -0.0000    -0.9380 ha         1 3WN       0.139000
     21 H3           1.8670     0.0010    -0.9500 h4         1 3WN       0.122000
     22 H4           2.2020     0.0020     5.5690 h5         1 3WN      -0.005900
     23 H5          -0.9020    -1.3860     5.9040 ha         1 3WN       0.139000
     24 H6          -4.0580    -0.4520     8.6420 ha         1 3WN       0.107000
     25 H7          -5.1750     0.8860     6.9010 ha         1 3WN       0.101000
     26 H8          -2.4760     0.0810     3.0710 hn         1 3WN       0.344800
     27 H9          -4.1610     1.1010     4.6670 ha         1 3WN       0.109000
     28 H10         -1.9840    -2.7440     8.4480 hn         1 3WN       0.272300
     29 H11         -1.1390    -1.3360     9.0030 hn         1 3WN       0.272300
     30 H2           3.0780     0.0000     1.0840 hn         1 3WN       0.283800
@<TRIPOS>BOND
     1     1     2 2   
     2     1    10 1   
     3     1    20 1   
     4     2     9 1   
     5     2    21 1   
     6     3    13 ar  
     7     3    14 ar  
     8     3    22 1   
     9     4    11 ar  
    10     4    14 ar  
    11     4    16 1   
    12     5     6 ar  
    13     5    16 1   
    14     5    18 ar  
    15     6    17 ar  
    16     6    23 1   
    17     7     8 ar  
    18     7    17 ar  
    19     7    24 1   
    20     8    18 ar  
    21     8    25 1   
    22     9    12 1   
    23     9    30 1   
    24    10    11 1   
    25    10    15 2   
    26    11    12 ar  
    27    12    13 ar  
    28    16    26 1   
    29    17    19 1   
    30    18    27 1   
    31    19    28 1   
    32    19    29 1   
@<TRIPOS>SUBSTRUCTURE
     1 3WN         1 TEMP              0 ****  ****    0 ROOT
