@<TRIPOS>MOLECULE
molecule
   30    32     1     0     0
SMALL
bcc


@<TRIPOS>ATOM
      1 C1           0.0000     0.0000     0.0000 cc         1 3WN      -0.322200
      2 C2           1.3470     0.0000     0.0000 cd         1 3WN       0.114000
      3 C8           1.5920    -0.0030     4.6740 ca         1 3WN       0.772900
      4 C10         -0.5180    -0.0100     3.7380 ca         1 3WN       0.791200
      5 C13         -2.4650    -0.1250     5.1470 ca         1 3WN       0.147600
      6 C14         -1.8370    -0.8850     6.1240 ca         1 3WN      -0.141000
      7 C15         -3.6100    -0.3590     7.6600 ca         1 3WN      -0.162000
      8 C16         -4.2380     0.3870     6.6820 ca         1 3WN      -0.110000
      9 N3           2.0790     0.0000     1.1440 na         1 3WN      -0.698700
     10 C4          -0.7090    -0.0010     1.2290 c          1 3WN       0.608900
     11 C5           0.0790    -0.0070     2.4670 ca         1 3WN      -0.513200
     12 C6           1.4830    -0.0010     2.3770 ca         1 3WN       0.741200
     13 N7           2.1930    -0.0020     3.5010 nb         1 3WN      -0.843000
     14 N9           0.2790    -0.0040     4.8050 nb         1 3WN      -0.831000
     15 O11         -1.9290     0.0040     1.2550 o          1 3WN      -0.599100
     16 N12         -1.8910    -0.0050     3.8780 nu         1 3WN      -0.737300
     17 C17         -2.4090    -1.0020     7.3820 ca         1 3WN       0.176600
     18 C18         -3.6680     0.5110     5.4300 ca         1 3WN      -0.164000
     19 N19         -1.7810    -1.7670     8.3680 nv         1 3WN      -0.989200
     20 H1          -0.5420    -0.0000    -0.9380 ha         1 3WN       0.167000
     21 H3           1.8670     0.0010    -0.9500 h4         1 3WN       0.156000
     22 H4           2.2020     0.0020     5.5690 h5         1 3WN       0.062100
     23 H5          -0.9020    -1.3860     5.9040 ha         1 3WN       0.161000
     24 H6          -4.0580    -0.4520     8.6420 ha         1 3WN       0.133000
     25 H7          -5.1750     0.8860     6.9010 ha         1 3WN       0.130000
     26 H8          -2.4760     0.0810     3.0710 hn         1 3WN       0.498800
     27 H9          -4.1610     1.1010     4.6670 ha         1 3WN       0.133000
     28 H10         -1.9840    -2.7440     8.4480 hn         1 3WN       0.426800
     29 H11         -1.1390    -1.3360     9.0030 hn         1 3WN       0.426800
     30 H2           3.0780     0.0000     1.0840 hn         1 3WN       0.464800
@<TRIPOS>BOND
     1    13     3 ar  
     2    13    12 ar  
     3     3    14 ar  
     4     9    12 1   
     5     9     2 1   
     6    12    11 ar  
     7    14     4 ar  
     8     2     1 2   
     9    11     4 ar  
    10    11    10 1   
    11     4    16 1   
    12     1    10 1   
    13    18     8 ar  
    14    18     5 ar  
    15    10    15 2   
    16     8     7 ar  
    17    16     5 1   
    18     5     6 ar  
    19     7    17 ar  
    20     6    17 ar  
    21    17    19 1   
    22     1    20 1   
    23     2    21 1   
    24     3    22 1   
    25     6    23 1   
    26     7    24 1   
    27     8    25 1   
    28    16    26 1   
    29    18    27 1   
    30    19    28 1   
    31    19    29 1   
    32     9    30 1   
@<TRIPOS>SUBSTRUCTURE
     1 3WN         1 TEMP              0 ****  ****    0 ROOT
