@<TRIPOS>MOLECULE
molecule
   30    32     1     0     0
SMALL
bcc


@<TRIPOS>ATOM
      1 C1           0.0000     0.0000     0.0000 c3         1 3WO      -0.292700
      2 C2           1.5050     0.0000     0.0000 c2         1 3WO       0.504200
      3 C8           1.8160     0.2360     4.6060 ca         1 3WO       0.752900
      4 C10         -0.2460    -0.3920     3.7790 ca         1 3WO       0.780200
      5 C13         -2.1170    -0.6470     5.2670 ca         1 3WO       0.144600
      6 C14         -3.0790    -1.5620     5.6710 ca         1 3WO      -0.172000
      7 C15         -3.2050    -0.4710     7.8100 ca         1 3WO      -0.157000
      8 C16         -2.2540     0.4450     7.4010 ca         1 3WO      -0.111000
      9 N3           2.2050     0.0000     1.0780 ne         1 3WO      -0.664700
     10 C4          -0.4860    -0.6470     1.2850 c          1 3WO       0.604700
     11 C5           0.2980    -0.3550     2.4870 ca         1 3WO      -0.544200
     12 C6           1.6610    -0.0160     2.3240 ca         1 3WO       0.739300
     13 N7           2.3720     0.2760     3.4100 nb         1 3WO      -0.757000
     14 N9           0.5550    -0.0880     4.8020 nb         1 3WO      -0.809000
     15 O11         -1.4660    -1.3620     1.3150 o          1 3WO      -0.539100
     16 N12         -1.5660    -0.7330     3.9860 nu         1 3WO      -0.744300
     17 C17         -3.6250    -1.4730     6.9440 ca         1 3WO       0.179600
     18 C18         -1.7060     0.3560     6.1360 ca         1 3WO      -0.131000
     19 N19         -4.5940    -2.3910     7.3550 nv         1 3WO      -0.990200
     20 H1          -0.3630    -0.5650    -0.8500 hc         1 3WO       0.098200
     21 H2          -0.3630     1.0190    -0.0530 hc         1 3WO       0.098200
     22 H3           2.0220     0.0000    -0.9520 h4         1 3WO       0.042800
     23 H4           2.4280     0.4760     5.4670 h5         1 3WO       0.066100
     24 H5          -3.4050    -2.3420     4.9940 ha         1 3WO       0.140000
     25 H6          -3.6320    -0.4000     8.8030 ha         1 3WO       0.135000
     26 H7          -1.9300     1.2270     8.0770 ha         1 3WO       0.133000
     27 H8          -2.1340    -1.0240     3.2150 hn         1 3WO       0.484800
     28 H9          -0.9580     1.0730     5.8190 ha         1 3WO       0.152000
     29 H10         -5.5640    -2.2000     7.1950 hn         1 3WO       0.428300
     30 H11         -4.3190    -3.2430     7.8010 hn         1 3WO       0.428300
@<TRIPOS>BOND
     1    13     3 ar
     2    13    12 ar
     3     3    14 ar
     4     9    12 1
     5     9     2 2
     6    12    11 ar
     7    14     4 ar
     8     2     1 1
     9    11     4 ar
    10    11    10 1
    11     4    16 1
    12     1    10 1
    13    18     8 ar
    14    18     5 ar
    15    10    15 2
    16     8     7 ar
    17    16     5 1
    18     5     6 ar
    19     7    17 ar
    20     6    17 ar
    21    17    19 1
    22     1    20 1
    23     1    21 1
    24     2    22 1
    25     3    23 1
    26     6    24 1
    27     7    25 1
    28     8    26 1
    29    16    27 1
    30    18    28 1
    31    19    29 1
    32    19    30 1
@<TRIPOS>SUBSTRUCTURE
     1 3WO         1 TEMP              0 ****  ****    0 ROOT
