@<TRIPOS>MOLECULE
3WO
   30    32     1     0     0
SMALL
bcc


@<TRIPOS>ATOM
      1 C1           0.0000     0.0000     0.0000 c3         1 3WO      -0.209700
      2 C2           1.5050     0.0000     0.0000 c2         1 3WO       0.461200
      3 C8           1.8160     0.2360     4.6060 ca         1 3WO       0.707900
      4 C10         -0.2460    -0.3920     3.7790 ca         1 3WO       0.590200
      5 C13         -2.1170    -0.6470     5.2670 ca         1 3WO      -0.015400
      6 C14         -3.0790    -1.5620     5.6710 ca         1 3WO      -0.136000
      7 C15         -3.2050    -0.4710     7.8100 ca         1 3WO      -0.122000
      8 C16         -2.2540     0.4450     7.4010 ca         1 3WO      -0.079000
      9 N3           2.2050     0.0000     1.0780 ne         1 3WO      -0.547700
     10 C4          -0.4860    -0.6470     1.2850 c          1 3WO       0.663700
     11 C5           0.2980    -0.3550     2.4870 ca         1 3WO      -0.565200
     12 C6           1.6610    -0.0160     2.3240 ca         1 3WO       0.659300
     13 N7           2.3720     0.2760     3.4100 nb         1 3WO      -0.659000
     14 N9           0.5550    -0.0880     4.8020 nb         1 3WO      -0.710000
     15 O11         -1.4660    -1.3620     1.3150 o          1 3WO      -0.575100
     16 N12         -1.5660    -0.7330     3.9860 nu         1 3WO      -0.277300
     17 C17         -3.6250    -1.4730     6.9440 ca         1 3WO       0.046600
     18 C18         -1.7060     0.3560     6.1360 ca         1 3WO      -0.105000
     19 N19         -4.5940    -2.3910     7.3550 nv         1 3WO      -0.561200
     20 H1          -0.3630    -0.5650    -0.8500 hc         1 3WO       0.060700
     21 H2          -0.3630     1.0190    -0.0530 hc         1 3WO       0.060700
     22 H3           2.0220     0.0000    -0.9520 h4         1 3WO      -0.011200
     23 H4           2.4280     0.4760     5.4670 h5         1 3WO      -0.001900
     24 H5          -3.4050    -2.3420     4.9940 ha         1 3WO       0.115000
     25 H6          -3.6320    -0.4000     8.8030 ha         1 3WO       0.108000
     26 H7          -1.9300     1.2270     8.0770 ha         1 3WO       0.103000
     27 H8          -2.1340    -1.0240     3.2150 hn         1 3WO       0.323800
     28 H9          -0.9580     1.0730     5.8190 ha         1 3WO       0.130000
     29 H10         -5.5640    -2.2000     7.1950 hn         1 3WO       0.273800
     30 H11         -4.3190    -3.2430     7.8010 hn         1 3WO       0.273800
@<TRIPOS>BOND
     1     1     2 1   
     2     1    10 1   
     3     1    20 1   
     4     1    21 1   
     5     2     9 2   
     6     2    22 1   
     7     3    13 ar  
     8     3    14 ar  
     9     3    23 1   
    10     4    11 ar  
    11     4    14 ar  
    12     4    16 1   
    13     5     6 ar  
    14     5    16 1   
    15     5    18 ar  
    16     6    17 ar  
    17     6    24 1   
    18     7     8 ar  
    19     7    17 ar  
    20     7    25 1   
    21     8    18 ar  
    22     8    26 1   
    23     9    12 1   
    24    10    11 1   
    25    10    15 2   
    26    11    12 ar  
    27    12    13 ar  
    28    16    27 1   
    29    17    19 1   
    30    18    28 1   
    31    19    29 1   
    32    19    30 1   
@<TRIPOS>SUBSTRUCTURE
     1 3WO         1 TEMP              0 ****  ****    0 ROOT
