@<TRIPOS>MOLECULE
3WP
   29    30     1     0     0
SMALL
bcc


@<TRIPOS>ATOM
      1 C4           0.0000     0.0000     0.0000 c3         1 3WP       0.103700
      2 N2           0.1490     2.8070     2.8800 nz         1 3WP       0.194400
      3 C7           4.1720     1.1270     2.0820 ca         1 3WP      -0.043000
      4 C6           3.5350     0.0830     1.4370 ca         1 3WP      -0.170300
      5 C9           6.2980     0.2430     1.4220 ca         1 3WP       0.167900
      6 C8           5.5510     1.2090     2.0750 ca         1 3WP      -0.131000
      7 C1           1.6100    -1.3110     2.1080 c3         1 3WP      -0.005100
      8 C2           2.0310     0.0000     1.4420 c3         1 3WP       0.173500
      9 C3           1.5340     0.0000     0.0000 c3         1 3WP      -0.078400
     10 S1          -0.5560     1.6300     0.5630 ss         1 3WP      -0.246300
     11 C5           0.4730     1.8240     1.9760 c2         1 3WP       0.165100
     12 N1           1.5040     1.1050     2.2140 n2         1 3WP      -0.370900
     13 C10          5.6630    -0.8100     0.7860 ca         1 3WP      -0.148000
     14 C11          4.2810    -0.8870     0.7890 ca         1 3WP       0.153900
     15 F1           3.6590    -1.9080     0.1600 f          1 3WP      -0.117900
     16 F2           7.6470     0.3180     1.4190 f          1 3WP      -0.105900
     17 H6          -0.3650    -0.1850    -1.0030 h1         1 3WP       0.080200
     18 H7          -0.3650    -0.7640     0.6760 h1         1 3WP       0.080200
     19 H9           0.4360     2.5250     3.7970 hn         1 3WP       0.222133
     20 H8           0.6150     3.6570     2.6310 hn         1 3WP       0.222133
     21 H11          6.0480     2.0300     2.5760 ha         1 3WP       0.134000
     22 H3           0.6460    -1.1810     2.5850 hc         1 3WP       0.033367
     23 H2           1.5410    -2.0910     1.3590 hc         1 3WP       0.033367
     24 H1           2.3460    -1.5900     2.8520 hc         1 3WP       0.033367
     25 H5           1.8960     0.8870    -0.5070 hc         1 3WP       0.072200
     26 H4           1.8960    -0.8870    -0.5070 hc         1 3WP       0.072200
     27 H12          6.2470    -1.5680     0.2780 ha         1 3WP       0.151000
     28 H23         -0.8410     2.9560     2.8710 hn         1 3WP       0.222133
     29 H10          3.5880     1.8840     2.5930 ha         1 3WP       0.103000
@<TRIPOS>BOND
     1     1     9 1   
     2     1    10 1   
     3     1    17 1   
     4     1    18 1   
     5     2    11 1   
     6     2    19 1   
     7     2    20 1   
     8     2    28 1   
     9     3     4 ar  
    10     3     6 ar  
    11     3    29 1   
    12     4     8 1   
    13     4    14 ar  
    14     5     6 ar  
    15     5    13 ar  
    16     5    16 1   
    17     6    21 1   
    18     7     8 1   
    19     7    22 1   
    20     7    23 1   
    21     7    24 1   
    22     8     9 1   
    23     8    12 1   
    24     9    25 1   
    25     9    26 1   
    26    10    11 1   
    27    11    12 2   
    28    13    14 ar  
    29    13    27 1   
    30    14    15 1   
@<TRIPOS>SUBSTRUCTURE
     1 3WP         1 TEMP              0 ****  ****    0 ROOT
