@<TRIPOS>MOLECULE
molecule
   47    49     1     0     0
SMALL
bcc


@<TRIPOS>ATOM
      1 CAA          0.0000     0.0000     0.0000 c3         1 3WQ      -0.091100
      2 CAO          1.5300     0.0000     0.0000 c3         1 3WQ      -0.084400
      3 CAP          2.0400     0.0000     1.4420 c3         1 3WQ       0.134400
      4 OAQ          3.4690     0.0010     1.4420 os         1 3WQ      -0.318900
      5 CAS          4.0850     0.1040     2.6470 cc         1 3WQ       0.169100
      6 CAN          3.3450     0.0950     3.8130 cd         1 3WQ      -0.251000
      7 CAX          4.0060     0.2030     5.0420 cd         1 3WQ       0.022700
      8 CAK          5.4850     0.2170     2.7230 cc         1 3WQ      -0.189000
      9 CAL          6.0930     0.3200     3.9240 cd         1 3WQ      -0.028300
     10 NAY          5.3690     0.3170     5.0800 na         1 3WQ       0.100700
     11 CAU          5.7640     0.4100     6.4050 cd         1 3WQ      -0.295300
     12 CAR          7.0840     0.5330     6.8610 c          1 3WQ       0.613300
     13 OAD          8.0010     0.5690     6.0630 o          1 3WQ      -0.584100
     14 CAB          7.3650     0.6240     8.3390 c3         1 3WQ      -0.180100
     15 CAM          4.6270     0.3580     7.2070 cc         1 3WQ       0.012000
     16 CAV          3.5260     0.2220     6.3690 cc         1 3WQ      -0.232200
     17 CAT          2.1100     0.1250     6.7910 ca         1 3WQ       0.092200
     18 CAI          1.2600     1.2230     6.6510 ca         1 3WQ      -0.143000
     19 CAG         -0.0580     1.1260     7.0450 ca         1 3WQ      -0.081000
     20 CAH         -0.5370    -0.0570     7.5780 ca         1 3WQ      -0.155000
     21 CAJ          0.3000    -1.1500     7.7200 ca         1 3WQ      -0.029000
     22 CAW          1.6180    -1.0660     7.3240 ca         1 3WQ      -0.286500
     23 SAZ          2.6820    -2.4600     7.4980 sy         1 3WQ       1.202300
     24 OAE          3.8200    -1.9510     8.1790 o          1 3WQ      -0.625800
     25 OAF          1.8590    -3.4570     8.0910 o          1 3WQ      -0.625800
     26 CAC          3.1100    -2.9190     5.7960 c3         1 3WQ      -0.223300
     27 H1          -0.3610    -0.0110    -1.0210 hc         1 3WQ       0.039367
     28 H2          -0.3610    -0.8790     0.5200 hc         1 3WQ       0.039367
     29 H3          -0.3610     0.8900     0.5010 hc         1 3WQ       0.039367
     30 H4           1.8910    -0.8840    -0.5110 hc         1 3WQ       0.057200
     31 H5           1.8910     0.8850    -0.5110 hc         1 3WQ       0.057200
     32 H6           1.6800    -0.8850     1.9530 h1         1 3WQ       0.039200
     33 H7           1.6790     0.8840     1.9530 h1         1 3WQ       0.039200
     34 H8           2.2650     0.1710     3.7710 ha         1 3WQ       0.159000
     35 H9           6.0780     0.2170     1.8160 ha         1 3WQ       0.168000
     36 H10          7.1720     0.4060     3.9700 h4         1 3WQ       0.203000
     37 H11          6.8370     1.4740     8.7550 hc         1 3WQ       0.064033
     38 H12          8.4290     0.7470     8.4970 hc         1 3WQ       0.064033
     39 H13          7.0290    -0.2830     8.8260 hc         1 3WQ       0.064033
     40 H14          4.5950     0.5180     8.2780 ha         1 3WQ       0.176000
     41 H15          1.6350     2.1500     6.2330 ha         1 3WQ       0.141000
     42 H16         -0.7190     1.9770     6.9370 ha         1 3WQ       0.132000
     43 H17         -1.5730    -0.1280     7.8890 ha         1 3WQ       0.136000
     44 H18         -0.0830    -2.0740     8.1360 ha         1 3WQ       0.160000
     45 H19          4.1260    -2.6100     5.5840 h1         1 3WQ       0.100033
     46 H20          2.4320    -2.4270     5.1080 h1         1 3WQ       0.100033
     47 H21          3.0260    -3.9930     5.6800 h1         1 3WQ       0.100033
@<TRIPOS>BOND
     1    19    18 ar  
     2    19    20 ar  
     3    18    17 ar  
     4    13    12 2   
     5     8     9 2   
     6     8     5 1   
     7     9    10 1   
     8     4     5 1   
     9     4     3 1   
    10    12    14 1   
    11    12    11 1   
    12     5     6 2   
    13    10    11 1   
    14    10     7 1   
    15    11    15 2   
    16     3     2 1   
    17     6     7 1   
    18     2     1 1   
    19     7    16 2   
    20    15    16 1   
    21    16    17 1   
    22    20    21 ar  
    23    17    22 ar  
    24    21    22 ar  
    25    22    23 1   
    26    23    26 1   
    27    23    25 2   
    28    23    24 2   
    29     1    27 1   
    30     1    28 1   
    31     1    29 1   
    32     2    30 1   
    33     2    31 1   
    34     3    32 1   
    35     3    33 1   
    36     6    34 1   
    37     8    35 1   
    38     9    36 1   
    39    14    37 1   
    40    14    38 1   
    41    14    39 1   
    42    15    40 1   
    43    18    41 1   
    44    19    42 1   
    45    20    43 1   
    46    21    44 1   
    47    26    45 1   
    48    26    46 1   
    49    26    47 1   
@<TRIPOS>SUBSTRUCTURE
     1 3WQ         1 TEMP              0 ****  ****    0 ROOT
