@<TRIPOS>MOLECULE
3WQ
   47    49     1     0     0
SMALL
bcc


@<TRIPOS>ATOM
      1 CAA         0.0960    0.1220   -0.4240 c3        1 3WQ     -0.094100
      2 CAO         1.5780    0.3090   -0.2350 c3        1 3WQ     -0.086400
      3 CAP         1.9350    0.2500    1.2400 c3        1 3WQ      0.125400
      4 OAQ         3.3580    0.4390    1.3040 os        1 3WQ     -0.319900
      5 CAS         3.9100    0.4100    2.5610 cc        1 3WQ      0.165100
      6 CAN         3.2080    0.2320    3.7380 cd        1 3WQ     -0.235000
      7 CAX         3.9250    0.2270    4.9630 cd        1 3WQ      0.032700
      8 CAK         5.3320    0.5870    2.5750 cc        1 3WQ     -0.192000
      9 CAL         6.0090    0.5780    3.7730 cd        1 3WQ     -0.030300
     10 NAY         5.3290    0.4020    4.9550 na        1 3WQ      0.060700
     11 CAU         5.7990    0.3480    6.2840 cd        1 3WQ     -0.271300
     12 CAR         7.1980    0.4850    6.6740 c         1 3WQ      0.613300
     13 OAD         8.1090    0.6710    5.8510 o         1 3WQ     -0.575100
     14 CAB         7.4610    0.3840    8.1430 c3        1 3WQ     -0.192100
     15 CAM         4.6850    0.1370    7.1260 cc        1 3WQ     -0.037000
     16 CAV         3.5130    0.0480    6.3210 cc        1 3WQ     -0.222200
     17 CAT         2.1420   -0.0790    6.7600 ca        1 3WQ      0.133200
     18 CAI         1.2220    0.8780    6.2880 ca        1 3WQ     -0.165000
     19 CAG        -0.1110    0.8400    6.6740 ca        1 3WQ     -0.067000
     20 CAH        -0.5540   -0.1650    7.5370 ca        1 3WQ     -0.161000
     21 CAJ         0.3450   -1.1160    7.9960 ca        1 3WQ     -0.034000
     22 CAW         1.7020   -1.1030    7.6200 ca        1 3WQ     -0.375500
     23 SAZ         2.6540   -2.3360    8.2590 sy        1 3WQ      1.396300
     24 OAE         3.7760   -1.8280    8.9340 o         1 3WQ     -0.666800
     25 OAF         1.8460   -3.2110    9.0080 o         1 3WQ     -0.666800
     26 CAC         3.1460   -3.1310    6.8520 c3        1 3WQ     -0.360300
     27 H1         -0.2330   -0.8680   -0.0260 hc        1 3WQ      0.039033
     28 H2         -0.1580    0.1660   -1.5110 hc        1 3WQ      0.039033
     29 H3         -0.4760    0.9220    0.1040 hc        1 3WQ      0.039033
     30 H4          1.9030    1.2970   -0.6550 hc        1 3WQ      0.059200
     31 H5          2.1450   -0.4870   -0.7850 hc        1 3WQ      0.059200
     32 H6          1.6710   -0.7460    1.6830 h1        1 3WQ      0.043700
     33 H7          1.4260    1.0670    1.8150 h1        1 3WQ      0.043700
     34 H8          2.1200    0.0940    3.7800 ha        1 3WQ      0.163000
     35 H9          5.8670    0.7290    1.6260 ha        1 3WQ      0.174000
     36 H10         7.1080    0.7070    3.8560 h4        1 3WQ      0.209000
     37 H11         6.9360    1.2130    8.6780 hc        1 3WQ      0.071700
     38 H12         7.0770   -0.5910    8.5340 hc        1 3WQ      0.071700
     39 H13         8.5570    0.4560    8.3450 hc        1 3WQ      0.071700
     40 H14         4.7290    0.0430    8.2150 ha        1 3WQ      0.200000
     41 H15         1.5800    1.6730    5.6160 ha        1 3WQ      0.144000
     42 H16        -0.8150    1.6010    6.3050 ha        1 3WQ      0.136000
     43 H17        -1.6070   -0.2000    7.8530 ha        1 3WQ      0.142000
     44 H18        -0.0120   -1.9120    8.6770 ha        1 3WQ      0.167000
     45 H19         2.3140   -3.6890    6.3570 h1        1 3WQ      0.117700
     46 H20         3.5740   -2.4430    6.0810 h1        1 3WQ      0.117700
     47 H21         3.9430   -3.8860    7.0730 h1        1 3WQ      0.117700
@<TRIPOS>BOND
     1    1    2 1   
     2    1   27 1   
     3    1   28 1   
     4    1   29 1   
     5    2    3 1   
     6    2   30 1   
     7    2   31 1   
     8    3    4 1   
     9    3   32 1   
    10    3   33 1   
    11    4    5 1   
    12    5    6 2   
    13    5    8 1   
    14    6    7 1   
    15    6   34 1   
    16    7   10 1   
    17    7   16 2   
    18    8    9 2   
    19    8   35 1   
    20    9   10 1   
    21    9   36 1   
    22   10   11 1   
    23   11   12 1   
    24   11   15 2   
    25   12   13 2   
    26   12   14 1   
    27   14   37 1   
    28   14   38 1   
    29   14   39 1   
    30   15   16 1   
    31   15   40 1   
    32   16   17 1   
    33   17   18 ar  
    34   17   22 ar  
    35   18   19 ar  
    36   18   41 1   
    37   19   20 ar  
    38   19   42 1   
    39   20   21 ar  
    40   20   43 1   
    41   21   22 ar  
    42   21   44 1   
    43   22   23 1   
    44   23   24 2   
    45   23   25 2   
    46   23   26 1   
    47   26   45 1   
    48   26   46 1   
    49   26   47 1   
@<TRIPOS>SUBSTRUCTURE
     1 3WQ         1 TEMP              0 ****  ****    0 ROOT
