@<TRIPOS>MOLECULE
3WR
   47    50     1     0     0
SMALL
bcc


@<TRIPOS>ATOM
      1 C1           0.0000     0.0000     0.0000 ca         1 3WR       0.504200
      2 C3           1.4070     0.0000     0.0000 ca         1 3WR      -0.463200
      3 C7           2.1130     0.0000     1.2860 c          1 3WR       0.644900
      4 C8           2.0840    -0.0010    -1.2310 ca         1 3WR       0.639200
      5 C9           0.0380    -0.0070    -2.2990 ca         1 3WR       0.691900
      6 C10         -2.7730    -1.0770     0.6820 ca         1 3WR      -0.050500
      7 C11         -2.7680     1.1100     1.6860 ca         1 3WR      -0.050500
      8 C12          1.3290     0.0020     2.4670 cc         1 3WR      -0.296200
      9 C16         -4.1530    -1.0710     0.6760 ca         1 3WR      -0.116000
     10 C20         -6.9210     0.6290     2.1680 c          1 3WR       0.555100
     11 C24         -8.3280     1.1800     4.5440 ca         1 3WR      -0.040000
     12 C27        -10.9670     1.9760     4.2680 ca         1 3WR      -0.116000
     13 C30         -8.3290     1.8100     6.9650 c3         1 3WR       0.644200
     14 N2          -0.6750     0.0080     1.1940 na         1 3WR       0.012500
     15 N4          -0.6370    -0.0000    -1.1680 nb         1 3WR      -0.688000
     16 C5          -2.0760     0.0130     1.1870 ca         1 3WR      -0.077400
     17 C6          -0.0170     0.0020     2.3820 cd         1 3WR      -0.040000
     18 O13          3.3330     0.0000     1.3370 o          1 3WR      -0.592100
     19 N14          1.3560    -0.0020    -2.3470 nb         1 3WR      -0.693000
     20 N15          3.4610    -0.0020    -1.2820 nv         1 3WR      -0.637500
     21 C17         -4.1480     1.1190     1.6710 ca         1 3WR      -0.116000
     22 C18         -4.8450     0.0280     1.1710 ca         1 3WR      -0.061400
     23 N19         -6.2450     0.0330     1.1650 ns         1 3WR      -0.040100
     24 N21         -8.2650     0.5540     2.2120 ns         1 3WR      -0.035100
     25 O22         -6.3170     1.2340     3.0320 o          1 3WR      -0.681100
     26 C23         -8.9600     1.0680     3.3140 ca         1 3WR      -0.103400
     27 C25        -10.2860     1.4680     3.1780 ca         1 3WR       0.089900
     28 C26         -9.0150     1.6880     5.6300 ca         1 3WR      -0.198300
     29 F28        -10.9050     1.3610     1.9830 f          1 3WR      -0.124900
     30 C29        -10.3320     2.0860     5.4920 ca         1 3WR      -0.038000
     31 F31         -7.3600     0.8080     7.0850 f          1 3WR      -0.206633
     32 F32         -7.7160     3.0640     7.0620 f          1 3WR      -0.206633
     33 F33         -9.2710     1.6710     7.9890 f          1 3WR      -0.206633
     34 H1          -0.5130    -0.0070    -3.2310 h5         1 3WR      -0.004900
     35 H2          -2.2330    -1.9320     0.2950 ha         1 3WR       0.115000
     36 H3          -2.2240     1.9610     2.0790 ha         1 3WR       0.115000
     37 H4           1.8100    -0.0020     3.4370 ha         1 3WR       0.140000
     38 H5          -4.6970    -1.9220     0.2840 ha         1 3WR       0.132500
     39 H6          -7.3100     0.8320     4.6630 ha         1 3WR       0.173000
     40 H7         -11.9990     2.2880     4.1640 ha         1 3WR       0.126000
     41 H8          -0.5960     0.0040     3.2980 h4         1 3WR       0.132000
     42 H9           3.9600    -0.8690    -1.3230 hn         1 3WR       0.289800
     43 H10          3.9610     0.8640    -1.3240 hn         1 3WR       0.289800
     44 H11         -4.6870     1.9750     2.0580 ha         1 3WR       0.132500
     45 H12         -6.7420    -0.4970     0.4760 hn         1 3WR       0.165500
     46 H13         -8.7700     0.1680     1.4380 hn         1 3WR       0.172500
     47 H14        -10.8680     2.4840     6.3450 ha         1 3WR       0.123000
@<TRIPOS>BOND
     1     1     2 ar  
     2     1    14 1   
     3     1    15 ar  
     4     2     3 1   
     5     2     4 ar  
     6     3     8 1   
     7     3    18 2   
     8     4    19 ar  
     9     4    20 1   
    10     5    15 ar  
    11     5    19 ar  
    12     5    34 1   
    13     6     9 ar  
    14     6    16 ar  
    15     6    35 1   
    16     7    16 ar  
    17     7    21 ar  
    18     7    36 1   
    19     8    17 2   
    20     8    37 1   
    21     9    22 ar  
    22     9    38 1   
    23    10    23 1   
    24    10    24 1   
    25    10    25 2   
    26    11    26 ar  
    27    11    28 ar  
    28    11    39 1   
    29    12    27 ar  
    30    12    30 ar  
    31    12    40 1   
    32    13    28 1   
    33    13    31 1   
    34    13    32 1   
    35    13    33 1   
    36    14    16 1   
    37    14    17 1   
    38    17    41 1   
    39    20    42 1   
    40    20    43 1   
    41    21    22 ar  
    42    21    44 1   
    43    22    23 1   
    44    23    45 1   
    45    24    26 1   
    46    24    46 1   
    47    26    27 ar  
    48    27    29 1   
    49    28    30 ar  
    50    30    47 1   
@<TRIPOS>SUBSTRUCTURE
     1 3WR         1 TEMP              0 ****  ****    0 ROOT
