@<TRIPOS>MOLECULE
molecule
   47    50     1     0     0
SMALL
bcc


@<TRIPOS>ATOM
      1 C1           0.0000     0.0000     0.0000 ca         1 3WR       0.715200
      2 C3           1.4070     0.0000     0.0000 ca         1 3WR      -0.458200
      3 C7           2.1130     0.0000     1.2860 c          1 3WR       0.589900
      4 C8           2.0840    -0.0010    -1.2310 ca         1 3WR       0.801200
      5 C9           0.0380    -0.0070    -2.2990 ca         1 3WR       0.738900
      6 C10         -2.7730    -1.0770     0.6820 ca         1 3WR      -0.092000
      7 C11         -2.7680     1.1100     1.6860 ca         1 3WR      -0.092000
      8 C12          1.3290     0.0020     2.4670 cc         1 3WR      -0.325200
      9 C16         -4.1530    -1.0710     0.6760 ca         1 3WR      -0.140500
     10 C20         -6.9210     0.6290     2.1680 c          1 3WR       0.785100
     11 C24         -8.3280     1.1800     4.5440 ca         1 3WR      -0.070000
     12 C27        -10.9670     1.9760     4.2680 ca         1 3WR      -0.151000
     13 C30         -8.3290     1.8100     6.9650 c3         1 3WR       0.679200
     14 N2          -0.6750     0.0080     1.1940 na         1 3WR      -0.489500
     15 N4          -0.6370    -0.0000    -1.1680 nb         1 3WR      -0.796000
     16 C5          -2.0760     0.0130     1.1870 ca         1 3WR       0.094600
     17 C6          -0.0170     0.0020     2.3820 cd         1 3WR       0.118000
     18 O13          3.3330     0.0000     1.3370 o          1 3WR      -0.550100
     19 N14          1.3560    -0.0020    -2.3470 nb         1 3WR      -0.797000
     20 N15          3.4610    -0.0020    -1.2820 nv         1 3WR      -1.065500
     21 C17         -4.1480     1.1190     1.6710 ca         1 3WR      -0.140500
     22 C18         -4.8450     0.0280     1.1710 ca         1 3WR       0.076600
     23 N19         -6.2450     0.0330     1.1650 ns         1 3WR      -0.482100
     24 N21         -8.2650     0.5540     2.2120 ns         1 3WR      -0.480100
     25 O22         -6.3170     1.2340     3.0320 o          1 3WR      -0.633100
     26 C23         -8.9600     1.0680     3.3140 ca         1 3WR       0.036600
     27 C25        -10.2860     1.4680     3.1780 ca         1 3WR       0.116900
     28 C26         -9.0150     1.6880     5.6300 ca         1 3WR      -0.176300
     29 F28        -10.9050     1.3610     1.9830 f          1 3WR      -0.138900
     30 C29        -10.3320     2.0860     5.4920 ca         1 3WR      -0.079000
     31 F31         -7.3600     0.8080     7.0850 f          1 3WR      -0.221300
     32 F32         -7.7160     3.0640     7.0620 f          1 3WR      -0.221300
     33 F33         -9.2710     1.6710     7.9890 f          1 3WR      -0.221300
     34 H1          -0.5130    -0.0070    -3.2310 h5         1 3WR       0.060100
     35 H2          -2.2330    -1.9320     0.2950 ha         1 3WR       0.147500
     36 H3          -2.2240     1.9610     2.0790 ha         1 3WR       0.147500
     37 H4           1.8100    -0.0020     3.4370 ha         1 3WR       0.167000
     38 H5          -4.6970    -1.9220     0.2840 ha         1 3WR       0.156500
     39 H6          -7.3100     0.8320     4.6630 ha         1 3WR       0.195000
     40 H7         -11.9990     2.2880     4.1640 ha         1 3WR       0.157000
     41 H8          -0.5960     0.0040     3.2980 h4         1 3WR       0.164000
     42 H9           3.9600    -0.8690    -1.3230 hn         1 3WR       0.451300
     43 H10          3.9610     0.8640    -1.3240 hn         1 3WR       0.451300
     44 H11         -4.6870     1.9750     2.0580 ha         1 3WR       0.156500
     45 H12         -6.7420    -0.4970     0.4760 hn         1 3WR       0.323500
     46 H13         -8.7700     0.1680     1.4380 hn         1 3WR       0.332500
     47 H14        -10.8680     2.4840     6.3450 ha         1 3WR       0.155000
@<TRIPOS>BOND
     1    20     4 1
     2    18     3 2
     3     3     2 1
     4     3     8 1
     5     4     2 ar
     6     4    19 ar
     7     2     1 ar
     8    19     5 ar
     9     8    17 2
    10     5    15 ar
    11    17    14 1
    12     1    15 ar
    13     1    14 1
    14    14    16 1
    15    16     6 ar
    16    16     7 ar
    17     6     9 ar
    18     7    21 ar
    19     9    22 ar
    20    21    22 ar
    21    22    23 1
    22    23    10 1
    23    25    10 2
    24    10    24 1
    25    24    26 1
    26    33    13 1
    27    11    26 ar
    28    11    28 ar
    29    26    27 ar
    30    31    13 1
    31    13    28 1
    32    13    32 1
    33    28    30 ar
    34    27    29 1
    35    27    12 ar
    36    30    12 ar
    37     5    34 1
    38     6    35 1
    39     7    36 1
    40     8    37 1
    41     9    38 1
    42    11    39 1
    43    12    40 1
    44    17    41 1
    45    20    42 1
    46    20    43 1
    47    21    44 1
    48    23    45 1
    49    24    46 1
    50    30    47 1
@<TRIPOS>SUBSTRUCTURE
     1 3WR         1 TEMP              0 ****  ****    0 ROOT
