@<TRIPOS>MOLECULE
3X0
   40    43     1     0     0
SMALL
bcc


@<TRIPOS>ATOM
      1 C1           0.0000     0.0000     0.0000 c3         1 3X0      -0.057000
      2 C2           1.5360     0.0000     0.0000 c3         1 3X0       0.165800
      3 C3           3.0760     0.8390     1.7390 ca         1 3X0       0.062600
      4 C4           3.4670     0.9500     3.0670 ca         1 3X0      -0.173500
      5 C5           4.5220     1.7750     3.4090 ca         1 3X0      -0.048500
      6 C6           5.1870     2.4900     2.4290 ca         1 3X0      -0.080600
      7 C7           4.7990     2.3820     1.1050 ca         1 3X0      -0.048500
      8 N1          -0.3990     0.7210     2.3980 na         1 3X0       0.277200
      9 N2          -1.3930     2.5830     2.0650 nc         1 3X0      -0.335000
     10 N3          -1.1110     2.0870     0.9080 nc         1 3X0      -0.306000
     11 C8           3.7460     1.5590     0.7570 ca         1 3X0      -0.173500
     12 C10          0.2170    -0.4200     2.9280 ca         1 3X0      -0.182200
     13 Cl           6.5100     3.5270     2.8620 cl         1 3X0      -0.032400
     14 N            2.0140     0.0000     1.3900 nh         1 3X0      -0.243400
     15 C9           1.4420    -0.8070     2.3710 ca         1 3X0       0.040600
     16 C14          2.0720    -1.9500     2.8320 ca         1 3X0      -0.089000
     17 C13          1.5000    -2.6860     3.8520 ca         1 3X0      -0.081000
     18 C12          0.3010    -2.2880     4.4160 ca         1 3X0      -0.086000
     19 C11         -0.3440    -1.1540     3.9520 ca         1 3X0      -0.084000
     20 C16         -0.5060     0.9470     1.0540 cd         1 3X0       0.157800
     21 C           -0.5090    -1.4120     0.2980 c3         1 3X0      -0.025100
     22 C15         -0.9760     1.7770     3.0090 cd         1 3X0       0.173800
     23 C17         -1.1150     1.9880     4.4950 c3         1 3X0       0.010600
     24 H1          -0.3580     0.3200    -0.9710 hc         1 3X0       0.057700
     25 H2           1.8980     0.8870    -0.5070 h1         1 3X0       0.035700
     26 H3           1.8980    -0.8870    -0.5070 h1         1 3X0       0.035700
     27 H4           2.9460     0.3900     3.8350 ha         1 3X0       0.121000
     28 H5           4.8270     1.8620     4.4440 ha         1 3X0       0.112000
     29 H6           5.3220     2.9440     0.3400 ha         1 3X0       0.112000
     30 H7           3.4430     1.4740    -0.2790 ha         1 3X0       0.121000
     31 H8           3.0110    -2.2660     2.3940 ha         1 3X0       0.122000
     32 H9           1.9980    -3.5750     4.2200 ha         1 3X0       0.111000
     33 H10         -0.1400    -2.8710     5.2150 ha         1 3X0       0.112000
     34 H11         -1.2830    -0.8430     4.3940 ha         1 3X0       0.121000
     35 H12         -1.2750    -1.3660     1.0620 hc         1 3X0       0.016033
     36 H13         -0.9240    -1.8440    -0.6050 hc         1 3X0       0.016033
     37 H14          0.3130    -2.0260     0.6470 hc         1 3X0       0.016033
     38 H15         -1.9330     1.3850     4.8710 hc         1 3X0       0.015700
     39 H16         -1.3160     3.0330     4.6950 hc         1 3X0       0.015700
     40 H17         -0.1950     1.6970     4.9890 hc         1 3X0       0.015700
@<TRIPOS>BOND
     1     1     2 1   
     2     1    20 1   
     3     1    21 1   
     4     1    24 1   
     5     2    14 1   
     6     2    25 1   
     7     2    26 1   
     8     3     4 ar  
     9     3    11 ar  
    10     3    14 1   
    11     4     5 ar  
    12     4    27 1   
    13     5     6 ar  
    14     5    28 1   
    15     6     7 ar  
    16     6    13 1   
    17     7    11 ar  
    18     7    29 1   
    19     8    12 1   
    20     8    20 1   
    21     8    22 1   
    22     9    10 1   
    23     9    22 2   
    24    10    20 2   
    25    11    30 1   
    26    12    15 ar  
    27    12    19 ar  
    28    14    15 1   
    29    15    16 ar  
    30    16    17 ar  
    31    16    31 1   
    32    17    18 ar  
    33    17    32 1   
    34    18    19 ar  
    35    18    33 1   
    36    19    34 1   
    37    21    35 1   
    38    21    36 1   
    39    21    37 1   
    40    22    23 1   
    41    23    38 1   
    42    23    39 1   
    43    23    40 1   
@<TRIPOS>SUBSTRUCTURE
     1 3X0         1 TEMP              0 ****  ****    0 ROOT
