@<TRIPOS>MOLECULE
molecule
   40    43     1     0     0
SMALL
bcc


@<TRIPOS>ATOM
      1 C1           0.0000     0.0000     0.0000 c3         1 3X0      -0.102000
      2 C2           1.5360     0.0000     0.0000 c3         1 3X0       0.244800
      3 C3           3.0760     0.8390     1.7390 ca         1 3X0       0.200600
      4 C4           3.4670     0.9500     3.0670 ca         1 3X0      -0.189500
      5 C5           4.5220     1.7750     3.4090 ca         1 3X0      -0.078000
      6 C6           5.1870     2.4900     2.4290 ca         1 3X0      -0.018600
      7 C7           4.7990     2.3820     1.1050 ca         1 3X0      -0.078000
      8 N1          -0.3990     0.7210     2.3980 na         1 3X0      -0.243800
      9 N2          -1.3930     2.5830     2.0650 nc         1 3X0      -0.355000
     10 N3          -1.1110     2.0870     0.9080 nc         1 3X0      -0.343000
     11 C8           3.7460     1.5590     0.7570 ca         1 3X0      -0.189500
     12 C10          0.2170    -0.4200     2.9280 ca         1 3X0      -0.012200
     13 Cl           6.5100     3.5270     2.8620 cl         1 3X0      -0.115400
     14 N            2.0140     0.0000     1.3900 nh         1 3X0      -0.617400
     15 C9           1.4420    -0.8070     2.3710 ca         1 3X0       0.153600
     16 C14          2.0720    -1.9500     2.8320 ca         1 3X0      -0.121000
     17 C13          1.5000    -2.6860     3.8520 ca         1 3X0      -0.121000
     18 C12          0.3010    -2.2880     4.4160 ca         1 3X0      -0.117000
     19 C11         -0.3440    -1.1540     3.9520 ca         1 3X0      -0.125000
     20 C16         -0.5060     0.9470     1.0540 cd         1 3X0       0.371800
     21 C           -0.5090    -1.4120     0.2980 c3         1 3X0      -0.100100
     22 C15         -0.9760     1.7770     3.0090 cd         1 3X0       0.377800
     23 C17         -1.1150     1.9880     4.4950 c3         1 3X0      -0.105400
     24 H1          -0.3580     0.3200    -0.9710 hc         1 3X0       0.092700
     25 H2           1.8980     0.8870    -0.5070 h1         1 3X0       0.060700
     26 H3           1.8980    -0.8870    -0.5070 h1         1 3X0       0.060700
     27 H4           2.9460     0.3900     3.8350 ha         1 3X0       0.141000
     28 H5           4.8270     1.8620     4.4440 ha         1 3X0       0.144500
     29 H6           5.3220     2.9440     0.3400 ha         1 3X0       0.144500
     30 H7           3.4430     1.4740    -0.2790 ha         1 3X0       0.141000
     31 H8           3.0110    -2.2660     2.3940 ha         1 3X0       0.152000
     32 H9           1.9980    -3.5750     4.2200 ha         1 3X0       0.141000
     33 H10         -0.1400    -2.8710     5.2150 ha         1 3X0       0.142000
     34 H11         -1.2830    -0.8430     4.3940 ha         1 3X0       0.147000
     35 H12         -1.2750    -1.3660     1.0620 hc         1 3X0       0.046700
     36 H13         -0.9240    -1.8440    -0.6050 hc         1 3X0       0.046700
     37 H14          0.3130    -2.0260     0.6470 hc         1 3X0       0.046700
     38 H15         -1.9330     1.3850     4.8710 hc         1 3X0       0.058700
     39 H16         -1.3160     3.0330     4.6950 hc         1 3X0       0.058700
     40 H17         -0.1950     1.6970     4.9890 hc         1 3X0       0.058700
@<TRIPOS>BOND
     1    23    22 1
     2    19    18 ar
     3    19    12 ar
     4    18    17 ar
     5    22     9 2
     6    22     8 1
     7     9    10 1
     8     8    12 1
     9     8    20 1
    10    12    15 ar
    11    17    16 ar
    12    10    20 2
    13    20     1 1
    14     1    21 1
    15     1     2 1
    16    15    16 ar
    17    15    14 1
    18    14     2 1
    19    14     3 1
    20    11     3 ar
    21    11     7 ar
    22     3     4 ar
    23     7     6 ar
    24     4     5 ar
    25     6     5 ar
    26     6    13 1
    27     1    24 1
    28     2    25 1
    29     2    26 1
    30     4    27 1
    31     5    28 1
    32     7    29 1
    33    11    30 1
    34    16    31 1
    35    17    32 1
    36    18    33 1
    37    19    34 1
    38    21    35 1
    39    21    36 1
    40    21    37 1
    41    23    38 1
    42    23    39 1
    43    23    40 1
@<TRIPOS>SUBSTRUCTURE
     1 3X0         1 TEMP              0 ****  ****    0 ROOT
