@<TRIPOS>MOLECULE
molecule
   35    34     1     0     0
SMALL
bcc


@<TRIPOS>ATOM
      1 C1           0.0000     0.0000     0.0000 c          1 3X1       0.871800
      2 C2           1.4690     0.0000     0.0000 ce         1 3X1      -0.178200
      3 C3           2.1350     0.0000     1.1520 c2         1 3X1      -0.221200
      4 C4           3.6420     0.0010     1.1530 c3         1 3X1      -0.042200
      5 C5           4.1520     1.1820     1.9790 c3         1 3X1      -0.076400
      6 C6           5.6820     1.1820     1.9800 c3         1 3X1      -0.084400
      7 C8           7.7220     2.3640     2.8070 c3         1 3X1      -0.082400
      8 O2          -0.6070     0.0050     1.0530 o          1 3X1      -0.848800
      9 O1          -0.6740     0.0000    -1.1670 o          1 3X1      -0.848800
     10 C7           6.1920     2.3640     2.8070 c3         1 3X1      -0.082400
     11 C9           8.2330     3.5460     3.6340 c3         1 3X1      -0.082400
     12 C10          9.7620     3.5450     3.6350 c3         1 3X1      -0.082400
     13 C11         10.2720     4.7270     4.4610 c3         1 3X1      -0.084400
     14 C12         11.8020     4.7270     4.4620 c3         1 3X1      -0.092100
     15 H1           2.0110     0.0010    -0.9380 ha         1 3X1       0.098000
     16 H2           1.5930    -0.0000     2.0900 ha         1 3X1       0.142000
     17 H3           4.0030     0.0900     0.1350 hc         1 3X1       0.028700
     18 H4           4.0030    -0.9250     1.5850 hc         1 3X1       0.028700
     19 H5           3.7910     2.1080     1.5470 hc         1 3X1       0.042700
     20 H6           3.7910     1.0940     2.9970 hc         1 3X1       0.042700
     21 H7           6.0430     0.2570     2.4120 hc         1 3X1       0.035200
     22 H8           6.0440     1.2710     0.9630 hc         1 3X1       0.035200
     23 H9           8.0830     1.4380     3.2390 hc         1 3X1       0.038200
     24 H10          8.0830     2.4520     1.7900 hc         1 3X1       0.038200
     25 H12          5.8310     3.2890     2.3750 hc         1 3X1       0.040200
     26 H13          5.8310     2.2750     3.8240 hc         1 3X1       0.040200
     27 H14          7.8710     3.4570     4.6520 hc         1 3X1       0.040200
     28 H15          7.8720     4.4710     3.2030 hc         1 3X1       0.040200
     29 H16         10.1230     2.6200     4.0670 hc         1 3X1       0.039200
     30 H17         10.1230     3.6340     2.6170 hc         1 3X1       0.039200
     31 H18          9.9110     4.6380     5.4790 hc         1 3X1       0.039200
     32 H19          9.9110     5.6520     4.0290 hc         1 3X1       0.039200
     33 H20         12.1640     4.8160     3.4450 hc         1 3X1       0.029700
     34 H21         12.1630     5.5640     5.0480 hc         1 3X1       0.029700
     35 H22         12.1630     3.8020     4.8940 hc         1 3X1       0.029700
@<TRIPOS>BOND
     1    14    13 1   
     2    13    12 1   
     3    12    11 1   
     4    11     7 1   
     5     7    10 1   
     6    10     6 1   
     7     6     5 1   
     8     5     4 1   
     9     4     3 1   
    10     2     3 2   
    11     2     1 1   
    12     8     1 1   
    13     1     9 1   
    14     2    15 1   
    15     3    16 1   
    16     4    17 1   
    17     4    18 1   
    18     5    19 1   
    19     5    20 1   
    20     6    21 1   
    21     6    22 1   
    22     7    23 1   
    23     7    24 1   
    24    10    25 1   
    25    10    26 1   
    26    11    27 1   
    27    11    28 1   
    28    12    29 1   
    29    12    30 1   
    30    13    31 1   
    31    13    32 1   
    32    14    33 1   
    33    14    34 1   
    34    14    35 1   
@<TRIPOS>SUBSTRUCTURE
     1 3X1         1 TEMP              0 ****  ****    0 ROOT
