@<TRIPOS>MOLECULE
3X1
   35    34     1     0     0
SMALL
bcc


@<TRIPOS>ATOM
      1 C1          0.9730    0.4090   -0.6430 c         1 3X1      0.893800
      2 C2          1.0420   -0.2380    0.7200 ce        1 3X1     -0.193200
      3 C3          2.1100   -0.3790    1.5070 c2        1 3X1     -0.203200
      4 C4          3.4920    0.0300    1.1650 c3        1 3X1     -0.052200
      5 C5          4.1260    0.8410    2.2780 c3        1 3X1     -0.070400
      6 C6          5.5430    1.2390    1.9240 c3        1 3X1     -0.079400
      7 C8          7.5960    2.4590    2.6700 c3        1 3X1     -0.079400
      8 O2         -0.1600    0.8460   -1.0040 o         1 3X1     -0.843300
      9 O1          2.0060    0.4850   -1.3700 o         1 3X1     -0.843300
     10 C7          6.1790    2.0620    3.0250 c3        1 3X1     -0.078400
     11 C9          8.2300    3.2840    3.7690 c3        1 3X1     -0.078400
     12 C10         9.6470    3.6790    3.4130 c3        1 3X1     -0.079400
     13 C11        10.2820    4.5060    4.5110 c3        1 3X1     -0.080400
     14 C12        11.6930    4.9020    4.1610 c3        1 3X1     -0.091100
     15 H1          0.0590   -0.5940    1.0730 ha        1 3X1      0.094000
     16 H2          2.0090   -0.8450    2.5030 ha        1 3X1      0.068000
     17 H3          3.4860    0.6220    0.2050 hc        1 3X1      0.065200
     18 H4          4.1100   -0.8910    0.9810 hc        1 3X1      0.065200
     19 H5          4.1300    0.2480    3.2310 hc        1 3X1      0.026700
     20 H6          3.5130    1.7610    2.4640 hc        1 3X1      0.026700
     21 H7          6.1580    0.3190    1.7400 hc        1 3X1      0.039700
     22 H8          5.5360    1.8280    0.9690 hc        1 3X1      0.039700
     23 H9          8.2100    1.5370    2.4890 hc        1 3X1      0.038700
     24 H10         7.5910    3.0450    1.7130 hc        1 3X1      0.038700
     25 H12         5.5640    2.9830    3.2060 hc        1 3X1      0.033700
     26 H13         6.1810    1.4740    3.9810 hc        1 3X1      0.033700
     27 H14         7.6160    4.2050    3.9480 hc        1 3X1      0.036200
     28 H15         8.2320    2.6970    4.7250 hc        1 3X1      0.036200
     29 H16         9.6450    4.2650    2.4560 hc        1 3X1      0.038200
     30 H17        10.2610    2.7580    3.2340 hc        1 3X1      0.038200
     31 H18        10.2810    3.9190    5.4680 hc        1 3X1      0.036700
     32 H19         9.6660    5.4260    4.6890 hc        1 3X1      0.036700
     33 H20        12.3290    3.9970    4.0040 hc        1 3X1      0.029033
     34 H21        11.7110    5.5080    3.2230 hc        1 3X1      0.029033
     35 H22        12.1430    5.5100    4.9830 hc        1 3X1      0.029033
@<TRIPOS>BOND
     1    1    2 1   
     2    1    8 1   
     3    1    9 1   
     4    2    3 2   
     5    2   15 1   
     6    3    4 1   
     7    3   16 1   
     8    4    5 1   
     9    4   17 1   
    10    4   18 1   
    11    5    6 1   
    12    5   19 1   
    13    5   20 1   
    14    6   10 1   
    15    6   21 1   
    16    6   22 1   
    17    7   10 1   
    18    7   11 1   
    19    7   23 1   
    20    7   24 1   
    21   10   25 1   
    22   10   26 1   
    23   11   12 1   
    24   11   27 1   
    25   11   28 1   
    26   12   13 1   
    27   12   29 1   
    28   12   30 1   
    29   13   14 1   
    30   13   31 1   
    31   13   32 1   
    32   14   33 1   
    33   14   34 1   
    34   14   35 1   
@<TRIPOS>SUBSTRUCTURE
     1 3X1         1 TEMP              0 ****  ****    0 ROOT
