@<TRIPOS>MOLECULE
molecule
   35    37     1     0     0
SMALL
bcc


@<TRIPOS>ATOM
      1 C1           0.0000     0.0000     0.0000 ca         1 3X2      -0.110000
      2 C2           1.3790     0.0000     0.0000 ca         1 3X2      -0.142000
      3 C3           2.0830     0.0000     1.1950 ca         1 3X2      -0.165000
      4 C4           1.4150     0.0010     2.4010 ca         1 3X2      -0.130000
      5 C5           0.0190     0.0010     2.4250 ca         1 3X2      -0.116900
      6 C6          -0.6980     0.0010     1.2090 ca         1 3X2      -0.048600
      7 C7          -2.1700     0.0070     1.2160 c          1 3X2       0.885200
      8 O8          -2.7720     0.8640     1.8340 o          1 3X2      -0.823800
      9 O9          -2.8520    -0.9360     0.5370 o          1 3X2      -0.823800
     10 C10         -0.7000     0.0020     3.7080 ce         1 3X2       0.363800
     11 N11         -1.9950    -0.1140     3.7280 n2         1 3X2      -0.285400
     12 N12         -2.6800    -0.1140     4.9500 nu         1 3X2      -0.590000
     13 C13         -4.0590    -0.2370     4.9720 cc         1 3X2       0.750300
     14 N14         -4.7950    -0.2490     6.0410 nd         1 3X2      -0.783000
     15 C15         -6.1030    -0.3760     5.8700 cd         1 3X2       0.426800
     16 C16         -6.5090    -0.4770     4.5910 cc         1 3X2      -0.274400
     17 S17         -5.0890    -0.3950     3.5520 ss         1 3X2      -0.022300
     18 C18         -7.0520    -0.4040     7.0090 ca         1 3X2      -0.080500
     19 C19         -6.5800    -0.2960     8.3160 ca         1 3X2       0.047400
     20 C20         -7.4700    -0.3220     9.3720 ca         1 3X2      -0.135000
     21 C21         -8.8260    -0.4560     9.1340 ca         1 3X2      -0.139000
     22 C22         -9.2990    -0.5660     7.8390 ca         1 3X2      -0.137000
     23 C23         -8.4200    -0.5340     6.7760 ca         1 3X2      -0.117000
     24 Cl1         -4.8790    -0.1270     8.6160 cl         1 3X2      -0.076400
     25 H1          -0.5420    -0.0000    -0.9380 ha         1 3X2       0.143000
     26 H2           1.9160    -0.0010    -0.9400 ha         1 3X2       0.106000
     27 H3           3.1660    -0.0000     1.1810 ha         1 3X2       0.105000
     28 H4           1.9730     0.0010     3.3290 ha         1 3X2       0.107000
     29 H6          -0.1510     0.0990     4.6370 h4         1 3X2      -0.033200
     30 H7          -2.1720    -0.0270     5.8080 hn         1 3X2       0.420800
     31 H8          -7.5340    -0.5860     4.2570 h4         1 3X2       0.162000
     32 H9          -7.1050    -0.2370    10.3880 ha         1 3X2       0.132000
     33 H10         -9.5190    -0.4790     9.9660 ha         1 3X2       0.121000
     34 H11        -10.3630    -0.6690     7.6590 ha         1 3X2       0.122000
     35 H12         -8.7920    -0.6200     5.7620 ha         1 3X2       0.139000
@<TRIPOS>BOND
     1    22    23 ar
     2    22    21 ar
     3    23    18 ar
     4    16    17 1
     5    16    15 2
     6    17    13 1
     7    21    20 ar
     8     3     4 ar
     9     3     2 ar
    10    18    15 1
    11    18    19 ar
    12    15    14 1
    13     4     5 ar
    14     2     1 ar
    15    20    19 ar
    16    19    24 1
    17    13    14 2
    18    13    12 1
    19     5    10 1
    20     5     6 ar
    21    11    12 1
    22    11    10 2
    23     1     6 ar
    24     6     7 1
    25     7     8 1
    26     7     9 1
    27     1    25 1
    28     2    26 1
    29     3    27 1
    30     4    28 1
    31    10    29 1
    32    12    30 1
    33    16    31 1
    34    20    32 1
    35    21    33 1
    36    22    34 1
    37    23    35 1
@<TRIPOS>SUBSTRUCTURE
     1 3X2         1 TEMP              0 ****  ****    0 ROOT
