@<TRIPOS>MOLECULE
3X2
   35    38     1     0     0
SMALL
bcc


@<TRIPOS>ATOM
      1 C1           0.0000     0.0000     0.0000 c2         1 3X2      -0.085000
      2 C2           1.3790     0.0000     0.0000 c2         1 3X2      -0.105000
      3 C3           2.0830     0.0000     1.1950 c2         1 3X2      -0.155000
      4 C4           1.4150     0.0010     2.4010 c2         1 3X2      -0.054000
      5 C5           0.0190     0.0010     2.4250 c3         1 3X2      -0.099000
      6 C6          -0.6980     0.0010     1.2090 c2         1 3X2      -0.059000
      7 C7          -2.1700     0.0070     1.2160 c2         1 3X2       0.423000
      8 O8          -2.7720     0.8640     1.8340 o          1 3X2      -0.604500
      9 O9          -2.8520    -0.9360     0.5370 o          1 3X2      -0.604500
     10 C10         -0.7000     0.0020     3.7080 c2         1 3X2      -0.546000
     11 N11         -1.9950    -0.1140     3.7280 n2         1 3X2       0.094000
     12 N12         -2.6800    -0.1140     4.9500 nu         1 3X2       0.195000
     13 C13         -4.0590    -0.2370     4.9720 c2         1 3X2      -0.162000
     14 N14         -4.7950    -0.2490     6.0410 n2         1 3X2      -0.161000
     15 C15         -6.1030    -0.3760     5.8700 c2         1 3X2      -0.038000
     16 C16         -6.5090    -0.4770     4.5910 c2         1 3X2      -0.389000
     17 S17         -5.0890    -0.3950     3.5520 ss         1 3X2       0.397000
     18 C18         -7.0520    -0.4040     7.0090 ca         1 3X2       0.016000
     19 C19         -6.5800    -0.2960     8.3160 ca         1 3X2      -0.103000
     20 C20         -7.4700    -0.3220     9.3720 ca         1 3X2      -0.114000
     21 C21         -8.8260    -0.4560     9.1340 ca         1 3X2      -0.110000
     22 C22         -9.2990    -0.5660     7.8390 ca         1 3X2      -0.112000
     23 C23         -8.4200    -0.5340     6.7760 ca         1 3X2      -0.095000
     24 Cl1         -4.8790    -0.1270     8.6160 cl         1 3X2       0.096000
     25 H1          -0.5420    -0.0000    -0.9380 ha         1 3X2       0.118000
     26 H2           1.9160    -0.0010    -0.9400 ha         1 3X2       0.085000
     27 H3           3.1660    -0.0000     1.1810 ha         1 3X2       0.088000
     28 H4           1.9730     0.0010     3.3300 ha         1 3X2       0.105000
     29 H6          -0.6400     0.8530     3.0400 DU         1 3X2       0.345000
     30 H7          -2.1710    -0.0300     5.8080 hn         1 3X2       0.074000
     31 H8          -7.5340    -0.5860     4.2570 h4         1 3X2       0.151000
     32 H9          -7.1050    -0.2370    10.3880 ha         1 3X2       0.105000
     33 H10         -9.5190    -0.4790     9.9660 ha         1 3X2       0.095000
     34 H11        -10.3630    -0.6690     7.6590 ha         1 3X2       0.096000
     35 H12         -8.7920    -0.6200     5.7620 ha         1 3X2       0.113000
@<TRIPOS>BOND
     1     1     2 1   
     2     1     6 1   
     3     1    25 1   
     4     2     3 1   
     5     2    26 1   
     6     3     4 1   
     7     3    27 1   
     8     4     5 1   
     9     4    28 1   
    10     5     6 1   
    11     5    10 1   
    12     5    29 1   
    13     6     7 1   
    14     7     8 1   
    15     7     9 1   
    16    10    11 1   
    17    10    29 1   
    18    11    12 1   
    19    12    13 1   
    20    12    30 1   
    21    13    14 1   
    22    13    17 1   
    23    14    15 1   
    24    15    16 1   
    25    15    18 1   
    26    16    17 1   
    27    16    31 1   
    28    18    19 1   
    29    18    23 1   
    30    19    20 1   
    31    19    24 1   
    32    20    21 1   
    33    20    32 1   
    34    21    22 1   
    35    21    33 1   
    36    22    23 1   
    37    22    34 1   
    38    23    35 1   
@<TRIPOS>SUBSTRUCTURE
     1 3X2         1 TEMP              0 ****  ****    0 ROOT
