@<TRIPOS>MOLECULE
3X3
   38    41     1     0     0
SMALL
bcc


@<TRIPOS>ATOM
      1 CAB        -0.3040   -0.4250   -0.1220 ca        1 3X3     -0.118500
      2 CAA         1.0620   -0.1890   -0.2560 ca        1 3X3     -0.121500
      3 CAG         1.8260    0.2110    0.8380 ca        1 3X3     -0.126000
      4 CAH         1.2200    0.3760    2.0820 ca        1 3X3     -0.121500
      5 CAI        -0.1430    0.1410    2.2460 ca        1 3X3     -0.118500
      6 CAC        -0.9140   -0.2620    1.1380 ca        1 3X3      0.025800
      7 NAD        -2.3230   -0.5110    1.2880 na        1 3X3      0.266800
      8 NAJ        -3.0720    0.0010    2.2910 nc        1 3X3     -0.473800
      9 NAE        -3.0660   -1.2810    0.4340 nc        1 3X3     -0.144800
     10 NAF        -4.2600   -1.2930    0.8380 nd        1 3X3     -0.348000
     11 CAK        -4.3210   -0.4840    2.0280 cd        1 3X3      0.557500
     12 CAN        -5.5270   -0.2510    2.8070 ca        1 3X3     -0.143500
     13 CAO        -5.5030   -0.4430    4.1930 ca        1 3X3     -0.069000
     14 CAP        -6.6540   -0.2520    4.9540 ca        1 3X3     -0.166000
     15 CAX        -7.8420    0.1400    4.3370 ca        1 3X3     -0.081000
     16 CAW        -7.8870    0.3530    2.9620 ca        1 3X3     -0.205000
     17 CAV        -6.7290    0.1660    2.1930 ca        1 3X3      0.160100
     18 OAU        -6.6650    0.4380    0.8430 os        1 3X3     -0.310900
     19 CAT        -7.9220    0.3660    0.1440 c3        1 3X3      0.105100
     20 CAS        -7.6020    0.2300   -1.2900 cc        1 3X3      0.218000
     21 OAR        -8.3390    1.0590   -2.1510 os        1 3X3     -0.366800
     22 CAQ        -7.9030    0.7650   -3.4410 cc        1 3X3      0.244600
     23 CAM        -6.7260   -0.5510   -2.0170 cd        1 3X3     -0.211300
     24 CAL        -6.9210   -0.2040   -3.4080 cd        1 3X3     -0.268300
     25 HAB        -0.8860   -0.7360   -1.0040 ha        1 3X3      0.158500
     26 HAA         1.5360   -0.3200   -1.2410 ha        1 3X3      0.140500
     27 HAG         2.9040    0.3970    0.7200 ha        1 3X3      0.138000
     28 HAH         1.8190    0.6940    2.9490 ha        1 3X3      0.140500
     29 HAI        -0.5980    0.2780    3.2390 ha        1 3X3      0.158500
     30 HAO        -4.5660   -0.7530    4.6810 ha        1 3X3      0.146000
     31 HAP        -6.6240   -0.4110    6.0420 ha        1 3X3      0.139000
     32 HAX        -8.7520    0.2870    4.9390 ha        1 3X3      0.136000
     33 HAW        -8.8240    0.6770    2.4880 ha        1 3X3      0.142000
     34 HAT1       -8.4970    1.3120    0.3390 h1        1 3X3      0.061700
     35 HAT2       -8.5100   -0.5240    0.4960 h1        1 3X3      0.061700
     36 HAM        -6.0150   -1.2760   -1.6270 ha        1 3X3      0.180000
     37 HAQ        -8.4010    1.3330   -4.2210 h4        1 3X3      0.052100
     38 HAL        -6.3850   -0.6360   -4.2480 ha        1 3X3      0.162000
@<TRIPOS>BOND
     1    1    2 ar
     2    1    6 ar
     3    1   25 1
     4    2    3 ar
     5    2   26 1
     6    3    4 ar
     7    3   27 1
     8    4    5 ar
     9    4   28 1
    10    5    6 ar
    11    5   29 1
    12    6    7 1
    13    7    8 1
    14    7    9 1
    15    8   11 2
    16    9   10 2
    17   10   11 1
    18   11   12 1
    19   12   13 ar
    20   12   17 ar
    21   13   14 ar
    22   13   30 1
    23   14   15 ar
    24   14   31 1
    25   15   16 ar
    26   15   32 1
    27   16   17 ar
    28   16   33 1
    29   17   18 1
    30   18   19 1
    31   19   20 1
    32   19   34 1
    33   19   35 1
    34   20   21 1
    35   20   23 2
    36   21   22 1
    37   22   24 2
    38   22   37 1
    39   23   24 1
    40   23   36 1
    41   24   38 1
@<TRIPOS>SUBSTRUCTURE
     1 3X3         1 TEMP              0 ****  ****    0 ROOT
