@<TRIPOS>MOLECULE
molecule
   69    73     1     0     0
SMALL
bcc


@<TRIPOS>ATOM
      1 O1           0.0000     0.0000     0.0000 o          1 3X5      -0.502100
      2 C24          1.2080     0.0000     0.0000 c          1 3X5       0.569900
      3 C23          1.9610     0.0000     1.3050 c3         1 3X5       0.045500
      4 C25          2.8420    -1.2490     1.3860 c3         1 3X5       0.002900
      5 C26          3.6870    -1.1880     2.6320 cc         1 3X5      -0.254900
      6 N3           3.3970    -1.7580     3.8420 na         1 3X5      -0.292900
      7 C28          4.4170    -1.4620     4.6770 cd         1 3X5       0.403400
      8 N2           5.2940    -0.7470     4.0290 nc         1 3X5      -0.699000
      9 C27          4.8750    -0.5670     2.7670 cc         1 3X5       0.320200
     10 N1           1.0070    -0.0010     2.4210 n7         1 3X5      -0.795200
     11 C22          0.5740     1.3650     2.7450 c3         1 3X5       0.139800
     12 C21         -0.4170     1.3230     3.9100 c3         1 3X5       0.119700
     13 C20         -0.9660     2.7290     4.1680 c3         1 3X5      -0.089400
     14 C19         -1.7840     3.1860     2.9570 c3         1 3X5      -0.067700
     15 C18         -2.3050     4.6040     3.2070 c3         1 3X5      -0.075400
     16 C17         -3.1290     5.0660     2.0040 c3         1 3X5      -0.079400
     17 C16         -4.3130     4.1180     1.8050 c3         1 3X5      -0.078400
     18 C15         -3.7930     2.7020     1.5510 c3         1 3X5      -0.075400
     19 C14         -2.9660     2.2360     2.7510 c3         1 3X5      -0.082700
     20 C13         -2.4400     0.8230     2.4810 c3         1 3X5       0.088000
     21 N           -1.5370     0.4340     3.5720 n          1 3X5      -0.459800
     22 C           -1.7330    -0.7140     4.2510 c          1 3X5       0.686700
     23 O           -0.9420    -1.0550     5.1090 o          1 3X5      -0.629100
     24 C1          -2.9080    -1.5570     3.9520 ca         1 3X5      -0.138600
     25 C12         -3.2030    -1.9020     2.6320 ca         1 3X5      -0.092500
     26 C11         -4.2990    -2.6880     2.3540 ca         1 3X5      -0.132000
     27 C4          -5.1130    -3.1410     3.3910 cp         1 3X5      -0.017000
     28 C3          -4.8200    -2.7970     4.7110 ca         1 3X5      -0.132000
     29 C2          -3.7220    -2.0160     4.9910 ca         1 3X5      -0.092500
     30 C5          -6.2930    -3.9880     3.0910 cp         1 3X5      -0.041000
     31 C10         -6.5860    -4.3380     1.7740 ca         1 3X5      -0.117000
     32 C9          -7.6850    -5.1260     1.5010 ca         1 3X5      -0.127000
     33 C8          -8.4950    -5.5700     2.5320 ca         1 3X5      -0.124000
     34 C7          -8.2090    -5.2250     3.8400 ca         1 3X5      -0.127000
     35 C6          -7.1090    -4.4420     4.1260 ca         1 3X5      -0.117000
     36 H1           1.7500     0.0320    -0.9380 h4         1 3X5      -0.004800
     37 H2           2.5840     0.8850     1.3620 h1         1 3X5       0.053700
     38 H3           2.2140    -2.1310     1.4180 hc         1 3X5       0.065200
     39 H4           3.4850    -1.2940     0.5150 hc         1 3X5       0.065200
     40 H5           2.5830    -2.2950     4.0660 hn         1 3X5       0.310700
     41 H6           4.4920    -1.7660     5.7150 h5         1 3X5       0.069100
     42 H8           5.3960    -0.0140     1.9950 h4         1 3X5       0.040100
     43 H9           1.4350    -0.4140     3.2260 hn         1 3X5       0.364800
     44 H11          0.0960     1.8070     1.8790 h1         1 3X5       0.042200
     45 H12          1.4350     1.9600     3.0240 h1         1 3X5       0.042200
     46 H13          0.0770     0.9590     4.8020 h1         1 3X5       0.087700
     47 H14         -0.1420     3.4150     4.3250 hc         1 3X5       0.052700
     48 H15         -1.6010     2.7130     5.0460 hc         1 3X5       0.052700
     49 H16         -1.1570     3.1810     2.0740 hc         1 3X5       0.054700
     50 H17         -2.9290     4.6060     4.0930 hc         1 3X5       0.042200
     51 H18         -1.4670     5.2750     3.3480 hc         1 3X5       0.042200
     52 H19         -2.5080     5.0580     1.1170 hc         1 3X5       0.041200
     53 H20         -3.4980     6.0690     2.1850 hc         1 3X5       0.041200
     54 H21         -4.8970     4.4450     0.9530 hc         1 3X5       0.041700
     55 H22         -4.9300     4.1200     2.6950 hc         1 3X5       0.041700
     56 H23         -3.1710     2.7020     0.6640 hc         1 3X5       0.044200
     57 H24         -4.6320     2.0310     1.4100 hc         1 3X5       0.044200
     58 H25         -3.5870     2.2290     3.6390 hc         1 3X5       0.059700
     59 H26         -3.2710     0.1300     2.4350 h1         1 3X5       0.069200
     60 H27         -1.8990     0.8110     1.5420 h1         1 3X5       0.069200
     61 H28         -2.5710    -1.5500     1.8250 ha         1 3X5       0.149000
     62 H29         -4.5280    -2.9560     1.3300 ha         1 3X5       0.137000
     63 H30         -5.4520    -3.1510     5.5160 ha         1 3X5       0.137000
     64 H31         -3.4940    -1.7490     6.0160 ha         1 3X5       0.149000
     65 H32         -5.9530    -3.9910     0.9670 ha         1 3X5       0.133500
     66 H33         -7.9140    -5.3990     0.4780 ha         1 3X5       0.131000
     67 H34         -9.3580    -6.1870     2.3130 ha         1 3X5       0.130000
     68 H35         -8.8450    -5.5770     4.6440 ha         1 3X5       0.131000
     69 H36         -6.8860    -4.1730     5.1520 ha         1 3X5       0.133500
@<TRIPOS>BOND
     1    32    31 ar
     2    32    33 ar
     3    31    30 ar
     4    33    34 ar
     5    28    29 ar
     6    28    27 ar
     7    30    27 1
     8    30    35 ar
     9    34    35 ar
    10     8     9 1
    11     8     7 2
    12    29    24 ar
    13    27    26 ar
    14     9     5 2
    15     7     6 1
    16     1     2 2
    17     2     3 1
    18    24    22 1
    19    24    25 ar
    20    26    25 ar
    21     5     6 1
    22     5     4 1
    23     3     4 1
    24     3    10 1
    25    23    22 2
    26    22    21 1
    27    10    11 1
    28    11    12 1
    29    21    12 1
    30    21    20 1
    31    12    13 1
    32    20    19 1
    33    13    14 1
    34    19    14 1
    35    19    18 1
    36    14    15 1
    37    18    17 1
    38    15    16 1
    39    17    16 1
    40     2    36 1
    41     3    37 1
    42     4    38 1
    43     4    39 1
    44     6    40 1
    45     7    41 1
    46     9    42 1
    47    10    43 1
    48    11    44 1
    49    11    45 1
    50    12    46 1
    51    13    47 1
    52    13    48 1
    53    14    49 1
    54    15    50 1
    55    15    51 1
    56    16    52 1
    57    16    53 1
    58    17    54 1
    59    17    55 1
    60    18    56 1
    61    18    57 1
    62    19    58 1
    63    20    59 1
    64    20    60 1
    65    25    61 1
    66    26    62 1
    67    28    63 1
    68    29    64 1
    69    31    65 1
    70    32    66 1
    71    33    67 1
    72    34    68 1
    73    35    69 1
@<TRIPOS>SUBSTRUCTURE
     1 3X5         1 TEMP              0 ****  ****    0 ROOT
