@<TRIPOS>MOLECULE
3X5
   69    73     1     0     0
SMALL
bcc


@<TRIPOS>ATOM
      1 O1           0.0000     0.0000     0.0000 o          1 3X5      -0.541100
      2 C24          1.2080     0.0000     0.0000 c          1 3X5       0.653900
      3 C23          1.9610     0.0000     1.3050 c3         1 3X5      -0.015500
      4 C25          2.8420    -1.2490     1.3860 c3         1 3X5       0.097900
      5 C26          3.6870    -1.1880     2.6320 cc         1 3X5      -0.459900
      6 N3           3.3970    -1.7580     3.8420 na         1 3X5       0.261100
      7 C28          4.4170    -1.4620     4.6770 cc         1 3X5       0.215400
      8 N2           5.2940    -0.7470     4.0290 nd         1 3X5      -0.621000
      9 C27          4.8750    -0.5670     2.7670 cd         1 3X5       0.331200
     10 N1           1.0070    -0.0010     2.4210 n7         1 3X5      -0.565200
     11 C22          0.5740     1.3650     2.7450 c3         1 3X5       0.110800
     12 C21         -0.4170     1.3230     3.9100 c3         1 3X5       0.025700
     13 C20         -0.9660     2.7290     4.1680 c3         1 3X5      -0.035400
     14 C19         -1.7840     3.1860     2.9570 c3         1 3X5      -0.056700
     15 C18         -2.3050     4.6040     3.2070 c3         1 3X5      -0.020400
     16 C17         -3.1290     5.0660     2.0040 c3         1 3X5      -0.024400
     17 C16         -4.3130     4.1180     1.8050 c3         1 3X5      -0.023400
     18 C15         -3.7930     2.7020     1.5510 c3         1 3X5      -0.020400
     19 C14         -2.9660     2.2360     2.7510 c3         1 3X5      -0.058700
     20 C13         -2.4400     0.8230     2.4810 c3         1 3X5      -0.002000
     21 N           -1.5370     0.4340     3.5720 n          1 3X5      -0.107800
     22 C           -1.7330    -0.7140     4.2510 c          1 3X5       0.618700
     23 O           -0.9420    -1.0550     5.1090 o          1 3X5      -0.672100
     24 C1          -2.9080    -1.5570     3.9520 ca         1 3X5      -0.148600
     25 C12         -3.2030    -1.9020     2.6320 ca         1 3X5      -0.065000
     26 C11         -4.2990    -2.6880     2.3540 ca         1 3X5      -0.112000
     27 C4          -5.1130    -3.1410     3.3910 cp         1 3X5      -0.012000
     28 C3          -4.8200    -2.7970     4.7110 ca         1 3X5      -0.112000
     29 C2          -3.7220    -2.0160     4.9910 ca         1 3X5      -0.065000
     30 C5          -6.2930    -3.9880     3.0910 cp         1 3X5      -0.037000
     31 C10         -6.5860    -4.3380     1.7740 ca         1 3X5      -0.097000
     32 C9          -7.6850    -5.1260     1.5010 ca         1 3X5      -0.098000
     33 C8          -8.4950    -5.5700     2.5320 ca         1 3X5      -0.098000
     34 C7          -8.2090    -5.2250     3.8400 ca         1 3X5      -0.098000
     35 C6          -7.1090    -4.4420     4.1260 ca         1 3X5      -0.097000
     36 H1           1.7500     0.0320    -0.9380 h4         1 3X5      -0.039800
     37 H2           2.5840     0.8850     1.3620 h1         1 3X5       0.038700
     38 H3           2.2140    -2.1310     1.4180 hc         1 3X5       0.026700
     39 H4           3.4850    -1.2940     0.5150 hc         1 3X5       0.026700
     40 H5           2.5830    -2.2950     4.0660 hn         1 3X5       0.134700
     41 H6           4.4920    -1.7660     5.7150 h5         1 3X5       0.026100
     42 H8           5.3960    -0.0140     1.9950 h4         1 3X5       0.003100
     43 H9           1.4350    -0.4140     3.2260 hn         1 3X5       0.261800
     44 H11          0.0960     1.8070     1.8790 h1         1 3X5       0.023200
     45 H12          1.4350     1.9600     3.0240 h1         1 3X5       0.023200
     46 H13          0.0770     0.9590     4.8020 h1         1 3X5       0.064700
     47 H14         -0.1420     3.4150     4.3250 hc         1 3X5       0.025700
     48 H15         -1.6010     2.7130     5.0460 hc         1 3X5       0.025700
     49 H16         -1.1570     3.1810     2.0740 hc         1 3X5       0.039700
     50 H17         -2.9290     4.6060     4.0930 hc         1 3X5       0.016200
     51 H18         -1.4670     5.2750     3.3480 hc         1 3X5       0.016200
     52 H19         -2.5080     5.0580     1.1170 hc         1 3X5       0.013700
     53 H20         -3.4980     6.0690     2.1850 hc         1 3X5       0.013700
     54 H21         -4.8970     4.4450     0.9530 hc         1 3X5       0.014200
     55 H22         -4.9300     4.1200     2.6950 hc         1 3X5       0.014200
     56 H23         -3.1710     2.7020     0.6640 hc         1 3X5       0.017700
     57 H24         -4.6320     2.0310     1.4100 hc         1 3X5       0.017700
     58 H25         -3.5870     2.2290     3.6390 hc         1 3X5       0.037700
     59 H26         -3.2710     0.1300     2.4350 h1         1 3X5       0.053200
     60 H27         -1.8990     0.8110     1.5420 h1         1 3X5       0.053200
     61 H28         -2.5710    -1.5500     1.8250 ha         1 3X5       0.121000
     62 H29         -4.5280    -2.9560     1.3300 ha         1 3X5       0.115000
     63 H30         -5.4520    -3.1510     5.5160 ha         1 3X5       0.115000
     64 H31         -3.4940    -1.7490     6.0160 ha         1 3X5       0.121000
     65 H32         -5.9530    -3.9910     0.9670 ha         1 3X5       0.111500
     66 H33         -7.9140    -5.3990     0.4780 ha         1 3X5       0.103000
     67 H34         -9.3580    -6.1870     2.3130 ha         1 3X5       0.102000
     68 H35         -8.8450    -5.5770     4.6440 ha         1 3X5       0.103000
     69 H36         -6.8860    -4.1730     5.1520 ha         1 3X5       0.111500
@<TRIPOS>BOND
     1     1     2 2   
     2     2     3 1   
     3     2    36 1   
     4     3     4 1   
     5     3    10 1   
     6     3    37 1   
     7     4     5 1   
     8     4    38 1   
     9     4    39 1   
    10     5     6 1   
    11     5     9 2   
    12     6     7 1   
    13     6    40 1   
    14     7     8 2   
    15     7    41 1   
    16     8     9 1   
    17     9    42 1   
    18    10    11 1   
    19    10    43 1   
    20    11    12 1   
    21    11    44 1   
    22    11    45 1   
    23    12    13 1   
    24    12    21 1   
    25    12    46 1   
    26    13    14 1   
    27    13    47 1   
    28    13    48 1   
    29    14    15 1   
    30    14    19 1   
    31    14    49 1   
    32    15    16 1   
    33    15    50 1   
    34    15    51 1   
    35    16    17 1   
    36    16    52 1   
    37    16    53 1   
    38    17    18 1   
    39    17    54 1   
    40    17    55 1   
    41    18    19 1   
    42    18    56 1   
    43    18    57 1   
    44    19    20 1   
    45    19    58 1   
    46    20    21 1   
    47    20    59 1   
    48    20    60 1   
    49    21    22 1   
    50    22    23 2   
    51    22    24 1   
    52    24    25 ar  
    53    24    29 ar  
    54    25    26 ar  
    55    25    61 1   
    56    26    27 ar  
    57    26    62 1   
    58    27    28 ar  
    59    27    30 1   
    60    28    29 ar  
    61    28    63 1   
    62    29    64 1   
    63    30    31 ar  
    64    30    35 ar  
    65    31    32 ar  
    66    31    65 1   
    67    32    33 ar  
    68    32    66 1   
    69    33    34 ar  
    70    33    67 1   
    71    34    35 ar  
    72    34    68 1   
    73    35    69 1   
@<TRIPOS>SUBSTRUCTURE
     1 3X5         1 TEMP              0 ****  ****    0 ROOT
