@<TRIPOS>MOLECULE
molecule
   45    47     1     0     0
SMALL
bcc


@<TRIPOS>ATOM
      1 C10          0.0000     0.0000     0.0000 c          1 3X6       0.775500
      2 C12         -0.0420    -0.0020     2.3360 c          1 3X6       0.701700
      3 C13          1.3730    -0.0010     2.3510 cc         1 3X6      -0.309200
      4 C14          2.0420     0.0000     1.1790 cd         1 3X6       0.030600
      5 C00          3.0160     4.0220    -2.1460 ca         1 3X6      -0.187000
      6 C01          3.3500     5.3400    -2.3970 ca         1 3X6      -0.117000
      7 C02          4.1910     6.0190    -1.5350 ca         1 3X6      -0.126000
      8 C03          4.7000     5.3840    -0.4180 ca         1 3X6      -0.172000
      9 C04          4.3710     4.0630    -0.1610 ca         1 3X6       0.102100
     10 C05          3.5240     3.3790    -1.0280 ca         1 3X6       0.123100
     11 C0C          5.6890     4.1470     1.7590 ca         1 3X6       0.110100
     12 C0D          5.1510     4.8660     2.8180 ca         1 3X6      -0.125000
     13 C0E          5.9770     5.5910     3.6600 ca         1 3X6       0.035400
     14 C0F          7.3420     5.6040     3.4510 ca         1 3X6      -0.113000
     15 C0G          7.8920     4.8830     2.3870 ca         1 3X6      -0.055800
     16 C0H          7.0560     4.1480     1.5430 ca         1 3X6      -0.119000
     17 Cl1          5.2950     6.4870     4.9810 cl         1 3X6      -0.089400
     18 C0M          9.3470     4.8940     2.1600 ce         1 3X6      -0.059200
     19 C0V         10.1510     5.6010     2.9800 cf         1 3X6      -0.060700
     20 C0X         11.5660     5.6120     2.7590 ch         1 3X6       0.186500
     21 N0Z         12.6880     5.6400     2.5820 n1         1 3X6      -0.353800
     22 O0B          3.1960     2.0830    -0.7810 os         1 3X6      -0.340900
     23 C0O          2.3240     1.4440    -1.7150 c3         1 3X6       0.131400
     24 N0S          1.3460     0.0000     0.0000 n          1 3X6      -0.336000
     25 N11         -0.6920    -0.0010     1.1550 ns         1 3X6      -0.562500
     26 O15         -0.5990     0.0050    -1.0570 o          1 3X6      -0.640500
     27 O17         -0.6680    -0.0020     3.3810 o          1 3X6      -0.617500
     28 H1           1.9070     0.0030     3.2930 ha         1 3X6       0.183000
     29 H2           3.1240     0.0600     1.1740 h4         1 3X6       0.182000
     30 H3           2.3560     3.4910    -2.8220 ha         1 3X6       0.145000
     31 H4           2.9520     5.8420    -3.2710 ha         1 3X6       0.137000
     32 H5           4.4510     7.0520    -1.7350 ha         1 3X6       0.137000
     33 H6           5.3590     5.9180     0.2560 ha         1 3X6       0.148000
     34 H7           4.0810     4.8650     2.9860 ha         1 3X6       0.164000
     35 H8           7.9850     6.1730     4.1120 ha         1 3X6       0.151000
     36 H9           7.4740     3.5860     0.7160 ha         1 3X6       0.154000
     37 H10          9.8070     4.1200     1.5580 ha         1 3X6       0.148000
     38 H11          9.7260     6.1600     3.8050 ha         1 3X6       0.157000
     39 H12          1.3610     1.9410    -1.7070 h1         1 3X6       0.057200
     40 H13          2.7520     1.5020    -2.7080 h1         1 3X6       0.057200
     41 H14          2.5490    -0.1720    -0.3150 h1         1 3X6       0.130700
     42 H15          2.4800    -0.6800    -2.0080 h1         1 3X6       0.130700
     43 H16         -1.6910     0.0580     1.1420 hn         1 3X6       0.360500
     44 C0P          2.0710     0.0010    -1.2720 c3         1 3X6      -0.013000
     45 O0A          4.8720     3.4370     0.9370 os         1 3X6      -0.241200
@<TRIPOS>BOND
     1    26     1 2
     2    44    23 1
     3    44    24 1
     4     1    24 1
     5     1    25 1
     6    23    22 1
     7    24     4 1
     8    25     2 1
     9     4     3 2
    10    22    10 1
    11     5    10 ar
    12     5     6 ar
    13     2     3 1
    14     2    27 2
    15    10     9 ar
    16     6     7 ar
    17     9    45 1
    18     9     8 ar
    19     7     8 ar
    20    45    11 1
    21    12    11 ar
    22    12    13 ar
    23    11    16 ar
    24    17    13 1
    25    13    14 ar
    26    16    15 ar
    27    14    15 ar
    28    15    18 1
    29    18    19 2
    30    19    20 1
    31    20    21 3
    32     3    28 1
    33     4    29 1
    34     5    30 1
    35     6    31 1
    36     7    32 1
    37     8    33 1
    38    12    34 1
    39    14    35 1
    40    16    36 1
    41    18    37 1
    42    19    38 1
    43    23    39 1
    44    23    40 1
    45    44    41 1
    46    44    42 1
    47    25    43 1
@<TRIPOS>SUBSTRUCTURE
     1 3X6         1 TEMP              0 ****  ****    0 ROOT
