@<TRIPOS>MOLECULE
3X6
   45    48     1     0     0
SMALL
bcc


@<TRIPOS>ATOM
      1 C10          0.0000     0.0000     0.0000 c2         1 3X6       0.147000
      2 C12         -0.0420    -0.0020     2.3360 c2         1 3X6       0.249000
      3 C13          1.3730    -0.0010     2.3510 c2         1 3X6      -0.258000
      4 C14          2.0420     0.0000     1.1790 c2         1 3X6      -0.104000
      5 C00          3.0160     4.0220    -2.1460 ca         1 3X6      -0.177000
      6 C01          3.3500     5.3400    -2.3970 ca         1 3X6      -0.088000
      7 C02          4.1910     6.0190    -1.5350 ca         1 3X6      -0.098000
      8 C03          4.7000     5.3840    -0.4180 ca         1 3X6      -0.162000
      9 C04          4.3710     4.0630    -0.1610 ca         1 3X6       0.061000
     10 C05          3.5240     3.3790    -1.0280 ca         1 3X6       0.079000
     11 C0C          5.6890     4.1470     1.7590 ca         1 3X6       0.062000
     12 C0D          5.1510     4.8660     2.8180 ca         1 3X6      -0.107000
     13 C0E          5.9770     5.5910     3.6600 ca         1 3X6      -0.110000
     14 C0F          7.3420     5.6040     3.4510 ca         1 3X6      -0.091000
     15 C0G          7.8920     4.8830     2.3870 ca         1 3X6       0.009000
     16 C0H          7.0560     4.1480     1.5430 ca         1 3X6      -0.094000
     17 Cl1          5.2950     6.4870     4.9810 cl         1 3X6       0.072000
     18 C0M          9.3470     4.8940     2.1600 c2         1 3X6      -0.233000
     19 C0V         10.1510     5.6010     2.9800 c2         1 3X6      -0.026000
     20 C0X         11.5660     5.6120     2.7590 c1         1 3X6       0.213000
     21 N0Z         12.6880     5.6400     2.5870 n1         1 3X6      -0.037000
     22 O0B          3.1960     2.0830    -0.7810 os         1 3X6      -0.192000
     23 C0O          2.3240     1.4440    -1.7150 c3         1 3X6      -0.016000
     24 N0S          1.3460     0.0000     0.0000 nx         1 3X6       0.206000
     25 N11         -0.6920    -0.0010     1.1550 ns         1 3X6       0.089000
     26 O15         -0.5990     0.0050    -1.0570 o          1 3X6      -0.408000
     27 O17         -0.6680    -0.0020     3.3810 o          1 3X6      -0.378000
     28 H1           1.9070     0.0010     3.2930 ha         1 3X6       0.152000
     29 H2           3.1240    -0.0590     1.1750 hx         1 3X6       0.150000
     30 H3           2.3560     3.4920    -2.8220 ha         1 3X6       0.127000
     31 H4           2.9520     5.8420    -3.2710 ha         1 3X6       0.107000
     32 H5           4.4510     7.0520    -1.7340 ha         1 3X6       0.107000
     33 H6           5.3590     5.9180     0.2560 ha         1 3X6       0.124000
     34 H7           4.0810     4.8650     2.9860 ha         1 3X6       0.130000
     35 H8           7.9850     6.1730     4.1120 ha         1 3X6       0.135000
     36 H9           7.4740     3.5860     0.7160 ha         1 3X6       0.127000
     37 H10          9.7820     5.6040     1.4670 ha         1 3X6       0.123000
     38 H11         11.2210     5.6090     2.8140 ha         1 3X6      -0.094000
     39 H12          1.2980     1.5530    -1.3830 h1         1 3X6       0.081500
     40 H13          2.4390     1.9030    -2.6890 h1         1 3X6       0.081500
     41 H14          2.5350    -0.6790    -1.9750 hx         1 3X6       0.163000
     42 H15          2.4940    -0.1540    -0.2870 DU         1 3X6       0.070000
     43 H16         -1.6910    -0.0600     1.1420 hn         1 3X6       0.119000
     44 C0P          2.0710     0.0010    -1.2720 c3         1 3X6      -0.191000
     45 O0A          4.8720     3.4370     0.9370 os         1 3X6      -0.123000
@<TRIPOS>BOND
     1     1    24 1   
     2     1    25 1   
     3     1    26 1   
     4     2     3 1   
     5     2    25 1   
     6     2    27 1   
     7     3     4 1   
     8     3    28 1   
     9     4    24 1   
    10     4    29 1   
    11     5     6 1   
    12     5    10 1   
    13     5    30 1   
    14     6     7 1   
    15     6    31 1   
    16     7     8 1   
    17     7    32 1   
    18     8     9 1   
    19     8    33 1   
    20     9    10 1   
    21     9    45 1   
    22    10    22 1   
    23    11    12 1   
    24    11    16 1   
    25    11    45 1   
    26    12    13 1   
    27    12    34 1   
    28    13    14 1   
    29    13    17 1   
    30    14    15 1   
    31    14    35 1   
    32    15    16 1   
    33    15    18 1   
    34    16    36 1   
    35    18    19 1   
    36    18    37 1   
    37    19    20 1   
    38    19    38 1   
    39    20    21 1   
    40    22    23 1   
    41    23    39 1   
    42    23    40 1   
    43    23    44 1   
    44    24    42 1   
    45    24    44 1   
    46    25    43 1   
    47    41    44 1   
    48    42    44 1   
@<TRIPOS>SUBSTRUCTURE
     1 3X6         1 TEMP              0 ****  ****    0 ROOT
