@<TRIPOS>MOLECULE
molecule
   49    53     1     0     0
SMALL
bcc


@<TRIPOS>ATOM
      1 N5          -1.2540    -0.0090    -2.2420 n1         1 3X7      -0.346800
      2 C18         -0.7070     0.0010    -1.2460 cg         1 3X7       0.147800
      3 C6           0.0000     0.0000     0.0000 ca         1 3X7       0.465300
      4 N2           1.3320     0.0000     0.0000 nb         1 3X7      -0.632000
      5 C7           2.0340     0.0000     1.1100 ca         1 3X7       0.408200
      6 C3           1.4020    -0.0020     2.3530 ca         1 3X7      -0.102500
      7 C5          -0.7120     0.0040     1.1960 ca         1 3X7      -0.150300
      8 C2          -0.0040    -0.0020     2.3940 cp         1 3X7      -0.064000
      9 C1          -0.3780    -0.0020     3.8170 cp         1 3X7      -0.209300
     10 C10         -1.5930     0.0060     4.4950 ca         1 3X7      -0.027000
     11 C9          -1.5680     0.0040     5.8910 cp         1 3X7      -0.185300
     12 C8          -0.3350    -0.0060     6.5450 ca         1 3X7       0.476200
     13 N3           0.7940    -0.0130     5.8730 nb         1 3X7      -0.719000
     14 C4           0.8250    -0.0120     4.5460 ca         1 3X7       0.511800
     15 N1           1.8730    -0.0040     3.6490 na         1 3X7      -0.273000
     16 C14         -2.8320     0.0130     6.6670 cp         1 3X7      -0.031000
     17 C13         -4.0590     0.0180     6.0040 ca         1 3X7      -0.122500
     18 C12         -5.2320     0.0260     6.7310 ca         1 3X7      -0.111000
     19 C15         -2.7980     0.0110     8.0600 ca         1 3X7      -0.122500
     20 C16         -3.9780     0.0190     8.7760 ca         1 3X7      -0.111000
     21 C11         -5.1920     0.0290     8.1130 ca         1 3X7      -0.074300
     22 C17         -6.4760     0.0380     8.9020 c3         1 3X7       0.209100
     23 N4          -6.9010    -1.3440     9.1620 n3         1 3X7      -0.732600
     24 C23         -5.9480    -2.0310    10.0440 c3         1 3X7       0.161800
     25 C22         -6.3430    -3.5030    10.1750 c3         1 3X7      -0.070900
     26 C21         -7.7580    -3.5990    10.7500 c3         1 3X7      -0.084400
     27 C20         -8.7230    -2.8350     9.8380 c3         1 3X7      -0.070900
     28 C19         -8.2600    -1.3820     9.7170 c3         1 3X7       0.161800
     29 H1           3.1160     0.0000     1.0660 h4         1 3X7       0.032100
     30 H2          -1.7940     0.0560     1.1820 ha         1 3X7       0.152000
     31 H3          -2.5230     0.0140     3.9400 ha         1 3X7       0.147000
     32 H4          -0.2970    -0.0070     7.6280 h4         1 3X7       0.034100
     33 H5           2.8350    -0.0040     3.9240 hn         1 3X7       0.314700
     34 H6          -4.0890     0.0140     4.9210 ha         1 3X7       0.130500
     35 H7          -6.1870     0.0290     6.2190 ha         1 3X7       0.135500
     36 H8          -1.8470     0.0030     8.5780 ha         1 3X7       0.130500
     37 H9          -3.9540     0.0180     9.8590 ha         1 3X7       0.135500
     38 H10         -6.2850     0.4170     9.8990 h1         1 3X7       0.039700
     39 H11         -7.2000     0.6730     8.4070 h1         1 3X7       0.039700
     40 H13         -4.9740    -2.0370     9.5710 h1         1 3X7       0.033950
     41 H14         -5.8860    -1.4900    10.9810 h1         1 3X7       0.033950
     42 H15         -5.7060    -3.9720    10.9160 hc         1 3X7       0.048200
     43 H16         -6.1970    -3.9910     9.2190 hc         1 3X7       0.048200
     44 H17         -7.7450    -3.2480    11.7750 hc         1 3X7       0.039700
     45 H18         -8.0750    -4.6340    10.7310 hc         1 3X7       0.039700
     46 H19         -8.7970    -3.3570     8.8910 hc         1 3X7       0.048200
     47 H20         -9.6990    -2.8060    10.3070 hc         1 3X7       0.048200
     48 H21         -8.9460    -0.9590     8.9920 h1         1 3X7       0.033950
     49 H22         -8.2860    -0.7870    10.6220 h1         1 3X7       0.033950
@<TRIPOS>BOND
     1     1     2 3
     2     2     3 1
     3     3     7 ar
     4     3     4 ar
     5     7     8 ar
     6     4     5 ar
     7     8     6 ar
     8     8     9 1
     9    18    17 ar
    10    18    21 ar
    11     5     6 ar
    12    17    16 ar
    13     6    15 1
    14    10     9 ar
    15    10    11 ar
    16     9    14 ar
    17    24    25 1
    18    24    23 1
    19    22    21 1
    20    22    23 1
    21    25    26 1
    22    21    20 ar
    23    16    11 1
    24    16    19 ar
    25    11    12 ar
    26    15    14 1
    27    14    13 ar
    28    23    28 1
    29    12    13 ar
    30    20    19 ar
    31    26    27 1
    32    28    27 1
    33     5    29 1
    34     7    30 1
    35    10    31 1
    36    12    32 1
    37    15    33 1
    38    17    34 1
    39    18    35 1
    40    19    36 1
    41    20    37 1
    42    22    38 1
    43    22    39 1
    44    24    40 1
    45    24    41 1
    46    25    42 1
    47    25    43 1
    48    26    44 1
    49    26    45 1
    50    27    46 1
    51    27    47 1
    52    28    48 1
    53    28    49 1
@<TRIPOS>SUBSTRUCTURE
     1 3X7         1 TEMP              0 ****  ****    0 ROOT
