@<TRIPOS>MOLECULE
3X7
   49    53     1     0     0
SMALL
bcc


@<TRIPOS>ATOM
      1 N5          -1.2540    -0.0090    -2.2420 n1         1 3X7      -0.371800
      2 C18         -0.7070     0.0010    -1.2460 cg         1 3X7       0.127800
      3 C6           0.0000     0.0000     0.0000 ca         1 3X7       0.458300
      4 N2           1.3320     0.0000     0.0000 nb         1 3X7      -0.522000
      5 C7           2.0340     0.0000     1.1100 ca         1 3X7       0.397200
      6 C3           1.4020    -0.0020     2.3530 ca         1 3X7      -0.289500
      7 C5          -0.7120     0.0040     1.1960 ca         1 3X7      -0.114300
      8 C2          -0.0040    -0.0020     2.3940 cp         1 3X7      -0.065000
      9 C1          -0.3780    -0.0020     3.8170 cp         1 3X7      -0.201300
     10 C10         -1.5930     0.0060     4.4950 ca         1 3X7      -0.002000
     11 C9          -1.5680     0.0040     5.8910 cp         1 3X7      -0.172300
     12 C8          -0.3350    -0.0060     6.5450 ca         1 3X7       0.438200
     13 N3           0.7940    -0.0130     5.8730 nb         1 3X7      -0.585000
     14 C4           0.8250    -0.0120     4.5460 ca         1 3X7       0.275800
     15 N1           1.8730    -0.0040     3.6490 na         1 3X7       0.265000
     16 C14         -2.8320     0.0130     6.6670 cp         1 3X7      -0.026000
     17 C13         -4.0590     0.0180     6.0040 ca         1 3X7      -0.101000
     18 C12         -5.2320     0.0260     6.7310 ca         1 3X7      -0.084000
     19 C15         -2.7980     0.0110     8.0600 ca         1 3X7      -0.101000
     20 C16         -3.9780     0.0190     8.7760 ca         1 3X7      -0.084000
     21 C11         -5.1920     0.0290     8.1130 ca         1 3X7      -0.086300
     22 C17         -6.4760     0.0380     8.9020 c3         1 3X7       0.211100
     23 N4          -6.9010    -1.3440     9.1620 n3         1 3X7      -0.539600
     24 C23         -5.9480    -2.0310    10.0440 c3         1 3X7       0.145800
     25 C22         -6.3430    -3.5030    10.1750 c3         1 3X7      -0.014900
     26 C21         -7.7580    -3.5990    10.7500 c3         1 3X7      -0.029400
     27 C20         -8.7230    -2.8350     9.8380 c3         1 3X7      -0.014900
     28 C19         -8.2600    -1.3820     9.7170 c3         1 3X7       0.145800
     29 H1           3.1160     0.0000     1.0660 h4         1 3X7      -0.015900
     30 H2          -1.7940     0.0560     1.1820 ha         1 3X7       0.121000
     31 H3          -2.5230     0.0140     3.9400 ha         1 3X7       0.119000
     32 H4          -0.2970    -0.0070     7.6280 h4         1 3X7      -0.009900
     33 H5           2.8350    -0.0040     3.9240 hn         1 3X7       0.127700
     34 H6          -4.0890     0.0140     4.9210 ha         1 3X7       0.109500
     35 H7          -6.1870     0.0290     6.2190 ha         1 3X7       0.109000
     36 H8          -1.8470     0.0030     8.5780 ha         1 3X7       0.109500
     37 H9          -3.9540     0.0180     9.8590 ha         1 3X7       0.109000
     38 H10         -6.2850     0.4170     9.8990 h1         1 3X7       0.011700
     39 H11         -7.2000     0.6730     8.4070 h1         1 3X7       0.011700
     40 H13         -4.9740    -2.0370     9.5710 h1         1 3X7       0.010450
     41 H14         -5.8860    -1.4900    10.9810 h1         1 3X7       0.010450
     42 H15         -5.7060    -3.9720    10.9160 hc         1 3X7       0.018200
     43 H16         -6.1970    -3.9910     9.2190 hc         1 3X7       0.018200
     44 H17         -7.7450    -3.2480    11.7750 hc         1 3X7       0.012200
     45 H18         -8.0750    -4.6340    10.7310 hc         1 3X7       0.012200
     46 H19         -8.7970    -3.3570     8.8910 hc         1 3X7       0.018200
     47 H20         -9.6990    -2.8060    10.3070 hc         1 3X7       0.018200
     48 H21         -8.9460    -0.9590     8.9920 h1         1 3X7       0.010450
     49 H22         -8.2860    -0.7870    10.6220 h1         1 3X7       0.010450
@<TRIPOS>BOND
     1     1     2 3   
     2     2     3 1   
     3     3     4 ar  
     4     3     7 ar  
     5     4     5 ar  
     6     5     6 ar  
     7     5    29 1   
     8     6     8 ar  
     9     6    15 1   
    10     7     8 ar  
    11     7    30 1   
    12     8     9 1   
    13     9    10 ar  
    14     9    14 ar  
    15    10    11 ar  
    16    10    31 1   
    17    11    12 ar  
    18    11    16 1   
    19    12    13 ar  
    20    12    32 1   
    21    13    14 ar  
    22    14    15 1   
    23    15    33 1   
    24    16    17 ar  
    25    16    19 ar  
    26    17    18 ar  
    27    17    34 1   
    28    18    21 ar  
    29    18    35 1   
    30    19    20 ar  
    31    19    36 1   
    32    20    21 ar  
    33    20    37 1   
    34    21    22 1   
    35    22    23 1   
    36    22    38 1   
    37    22    39 1   
    38    23    24 1   
    39    23    28 1   
    40    24    25 1   
    41    24    40 1   
    42    24    41 1   
    43    25    26 1   
    44    25    42 1   
    45    25    43 1   
    46    26    27 1   
    47    26    44 1   
    48    26    45 1   
    49    27    28 1   
    50    27    46 1   
    51    27    47 1   
    52    28    48 1   
    53    28    49 1   
@<TRIPOS>SUBSTRUCTURE
     1 3X7         1 TEMP              0 ****  ****    0 ROOT
