@<TRIPOS>MOLECULE
molecule
   44    46     1     0     0
SMALL
bcc


@<TRIPOS>ATOM
      1 C4           0.0000     0.0000     0.0000 c3         1 3X8       0.115100
      2 C5           1.5300     0.0000     0.0000 c3         1 3X8       0.145100
      3 C6           2.0410     1.2480    -0.7220 c3         1 3X8       0.151400
      4 C3          -0.5040    -1.2200     0.7760 c3         1 3X8       0.133100
      5 CAH          8.1220    -4.5100     0.5370 ca         1 3X8      -0.122000
      6 CAI          9.4820    -4.7460     0.5030 ca         1 3X8      -0.125500
      7 CAJ         10.3550    -3.8660     1.1170 ca         1 3X8      -0.131000
      8 CAK          9.8700    -2.7470     1.7690 ca         1 3X8      -0.125500
      9 CAL          8.5130    -2.5000     1.8090 ca         1 3X8      -0.122000
     10 CAG          7.6290    -3.3840     1.1920 cp         1 3X8      -0.027000
     11 CAD          6.1580    -2.9940     1.5580 cp         1 3X8      -0.066000
     12 CAC          5.3150    -3.9070     0.9270 ca         1 3X8      -0.087000
     13 CAB          3.9550    -3.6820     0.8990 ca         1 3X8      -0.174000
     14 CAE          5.6230    -1.8600     2.1650 ca         1 3X8      -0.087000
     15 CAF          4.2610    -1.6390     2.1330 ca         1 3X8      -0.174000
     16 CAA          3.4250    -2.5480     1.4990 ca         1 3X8       0.137100
     17 O1           2.0840    -2.3290     1.4710 os         1 3X8      -0.359900
     18 C1           1.6060    -1.1420     2.1070 c3         1 3X8       0.316900
     19 O5           2.0060     0.0000     1.3480 os         1 3X8      -0.403600
     20 O6           3.4650     1.1910    -0.8240 oh         1 3X8      -0.599800
     21 O4          -0.4780    -0.0590    -1.3460 oh         1 3X8      -0.604800
     22 O3          -1.9310    -1.1880     0.8450 oh         1 3X8      -0.594800
     23 C2           0.0770    -1.1880     2.1930 c3         1 3X8       0.114100
     24 O2          -0.3980    -0.0260     2.8780 oh         1 3X8      -0.574800
     25 H41         -0.3600     0.9040     0.4770 h1         1 3X8       0.071700
     26 H5           1.8890    -0.8880    -0.5070 h1         1 3X8       0.074700
     27 H62          1.7550     2.1310    -0.1630 h1         1 3X8       0.035700
     28 H61          1.6090     1.2930    -1.7140 h1         1 3X8       0.035700
     29 H31         -0.1810    -2.1250     0.2750 h1         1 3X8       0.066700
     30 HAI          9.8660    -5.6210    -0.0070 ha         1 3X8       0.129500
     31 HAJ         11.4210    -4.0540     1.0880 ha         1 3X8       0.128000
     32 HAK         10.5580    -2.0600     2.2480 ha         1 3X8       0.129500
     33 HAL          8.1350    -1.6230     2.3200 ha         1 3X8       0.132000
     34 HAC          5.7330    -4.6990     0.3180 ha         1 3X8       0.137500
     35 HAB          3.2990    -4.3900     0.4070 ha         1 3X8       0.145500
     36 HAE          6.2740    -1.0500     2.4710 ha         1 3X8       0.137500
     37 HAF          3.8450    -0.7560     2.6030 ha         1 3X8       0.145500
     38 H1           2.0200    -1.0710     3.1060 h2         1 3X8       0.086700
     39 H63          3.7690     1.9000    -1.3660 ho         1 3X8       0.401000
     40 H42         -1.1700     0.5700    -1.4610 ho         1 3X8       0.413000
     41 H32         -2.2760    -2.0340     0.6110 ho         1 3X8       0.405000
     42 H21         -0.2270    -2.0790     2.7280 h1         1 3X8       0.052700
     43 H22         -0.6400    -0.2570     3.7590 ho         1 3X8       0.406000
     44 HAH          7.4390    -5.2000     0.0560 ha         1 3X8       0.132000
@<TRIPOS>BOND
     1     7     8 ar  
     2     7     6 ar  
     3     8     9 ar  
     4     6     5 ar  
     5     9    10 ar  
     6     5    10 ar  
     7    10    11 1   
     8    11    14 ar  
     9    11    12 ar  
    10    14    15 ar  
    11    12    13 ar  
    12    15    16 ar  
    13    13    16 ar  
    14    16    17 1   
    15    17    18 1   
    16    18    19 1   
    17    18    23 1   
    18    19     2 1   
    19     2     3 1   
    20     2     1 1   
    21    23     4 1   
    22    23    24 1   
    23     3    20 1   
    24     4     1 1   
    25     4    22 1   
    26     1    21 1   
    27     1    25 1   
    28     2    26 1   
    29     3    27 1   
    30     3    28 1   
    31     4    29 1   
    32     5    44 1   
    33     6    30 1   
    34     7    31 1   
    35     8    32 1   
    36     9    33 1   
    37    12    34 1   
    38    13    35 1   
    39    14    36 1   
    40    15    37 1   
    41    18    38 1   
    42    20    39 1   
    43    21    40 1   
    44    22    41 1   
    45    23    42 1   
    46    24    43 1   
@<TRIPOS>SUBSTRUCTURE
     1 3X8         1 TEMP              0 ****  ****    0 ROOT
