@<TRIPOS>MOLECULE
3X8
   44    46     1     0     0
SMALL
bcc


@<TRIPOS>ATOM
      1 C4         -0.2920    0.0280    0.0750 c3        1 3X8      0.090100
      2 C5          1.2170    0.1780   -0.1630 c3        1 3X8      0.100100
      3 C6          1.5550    1.5530   -0.7440 c3        1 3X8      0.140400
      4 C3         -0.5700   -1.3100    0.7830 c3        1 3X8      0.074100
      5 CAH         8.2920   -4.3320    0.4300 ca        1 3X8     -0.119000
      6 CAI         9.6440   -4.6630    0.4970 ca        1 3X8     -0.129500
      7 CAJ        10.4610   -4.0880    1.4700 ca        1 3X8     -0.126000
      8 CAK         9.9210   -3.1760    2.3770 ca        1 3X8     -0.129500
      9 CAL         8.5710   -2.8390    2.3120 ca        1 3X8     -0.119000
     10 CAG         7.7430   -3.4150    1.3380 cp        1 3X8     -0.037000
     11 CAD         6.3260   -3.0640    1.2690 cp        1 3X8     -0.053000
     12 CAC         5.3620   -4.0520    1.0150 ca        1 3X8     -0.095000
     13 CAB         4.0110   -3.7310    0.9560 ca        1 3X8     -0.160500
     14 CAE         5.9140   -1.7370    1.4540 ca        1 3X8     -0.095000
     15 CAF         4.5660   -1.3940    1.3870 ca        1 3X8     -0.160500
     16 CAA         3.6190   -2.3960    1.1430 ca        1 3X8      0.110100
     17 O1          2.2610   -2.1420    1.0040 os        1 3X8     -0.354900
     18 C1          1.7380   -1.0950    1.8070 c3        1 3X8      0.302900
     19 O5          1.9150    0.1050    1.0880 os        1 3X8     -0.453600
     20 O6          2.9120    1.6360   -1.1170 oh        1 3X8     -0.591800
     21 O4         -0.9280    0.0770   -1.1890 oh        1 3X8     -0.589800
     22 O3         -1.9540   -1.4390    1.0310 oh        1 3X8     -0.592800
     23 C2          0.2530   -1.4180    2.0730 c3        1 3X8      0.091100
     24 O2         -0.2570   -0.5540    3.0700 oh        1 3X8     -0.589800
     25 H41        -0.6720    0.8790    0.7090 h1        1 3X8      0.039700
     26 H5          1.5860   -0.6390   -0.8420 h1        1 3X8      0.091700
     27 H62         0.9700    1.7020   -1.6920 h1        1 3X8      0.063200
     28 H61         1.3050    2.3560   -0.0010 h1        1 3X8      0.063200
     29 H31        -0.3120   -2.1640    0.0950 h1        1 3X8      0.109700
     30 HAI        10.0670   -5.3810   -0.2220 ha        1 3X8      0.132500
     31 HAJ        11.5270   -4.3520    1.5220 ha        1 3X8      0.133000
     32 HAK        10.5620   -2.7210    3.1460 ha        1 3X8      0.132500
     33 HAL         8.1480   -2.1230    3.0330 ha        1 3X8      0.134000
     34 HAC         5.6790   -5.0970    0.8700 ha        1 3X8      0.140500
     35 HAB         3.2520   -4.5000    0.7580 ha        1 3X8      0.150000
     36 HAE         6.6640   -0.9530    1.6400 ha        1 3X8      0.140500
     37 HAF         4.2460   -0.3480    1.5080 ha        1 3X8      0.150000
     38 H1          2.3050   -0.9460    2.7690 h2        1 3X8      0.103700
     39 H63         3.4360    1.4210   -0.3350 ho        1 3X8      0.407000
     40 H42        -1.8100   -0.3040   -1.0690 ho        1 3X8      0.424000
     41 H32        -2.1580   -0.9270    1.8270 ho        1 3X8      0.417000
     42 H21         0.1530   -2.4510    2.5090 h1        1 3X8      0.111700
     43 H22        -0.0400    0.3520    2.8080 ho        1 3X8      0.412000
     44 HAH         7.6530   -4.7830   -0.3440 ha        1 3X8      0.134000
@<TRIPOS>BOND
     1    1    2 1   
     2    1    4 1   
     3    1   21 1   
     4    1   25 1   
     5    2    3 1   
     6    2   19 1   
     7    2   26 1   
     8    3   20 1   
     9    3   27 1   
    10    3   28 1   
    11    4   22 1   
    12    4   23 1   
    13    4   29 1   
    14    5    6 ar  
    15    5   10 ar  
    16    5   44 1   
    17    6    7 ar  
    18    6   30 1   
    19    7    8 ar  
    20    7   31 1   
    21    8    9 ar  
    22    8   32 1   
    23    9   10 ar  
    24    9   33 1   
    25   10   11 1   
    26   11   12 ar  
    27   11   14 ar  
    28   12   13 ar  
    29   12   34 1   
    30   13   16 ar  
    31   13   35 1   
    32   14   15 ar  
    33   14   36 1   
    34   15   16 ar  
    35   15   37 1   
    36   16   17 1   
    37   17   18 1   
    38   18   19 1   
    39   18   23 1   
    40   18   38 1   
    41   20   39 1   
    42   21   40 1   
    43   22   41 1   
    44   23   24 1   
    45   23   42 1   
    46   24   43 1   
@<TRIPOS>SUBSTRUCTURE
     1 3X8         1 TEMP              0 ****  ****    0 ROOT
