@<TRIPOS>MOLECULE
3XA
   56    58     1     0     0
SMALL
bcc


@<TRIPOS>ATOM
      1 O1           0.0000     0.0000     0.0000 os         1 3XA      -0.389600
      2 C2          -0.5810     0.5940    -1.1630 c3         1 3XA       0.209400
      3 C3          -2.1060     0.5400    -1.0560 c3         1 3XA       0.139800
      4 N4          -2.5480     1.3750     0.0690 n7         1 3XA      -0.563200
      5 C5          -4.0110     1.3470     0.2030 c3         1 3XA       0.095800
      6 C6          -4.4320     2.2260     1.3830 c3         1 3XA       0.445900
      7 F7          -3.8470     1.7410     2.5570 f          1 3XA      -0.214800
      8 F8          -4.0090     3.5410     1.1590 f          1 3XA      -0.214800
      9 N1'          3.1680    -1.6410     0.1790 n7         1 3XA      -0.587200
     10 C11         -5.9330     2.1970     1.5200 ca         1 3XA      -0.150300
     11 C12         -6.5350     1.2410     2.3160 ca         1 3XA      -0.094000
     12 C13         -7.9140     1.2140     2.4420 ca         1 3XA       0.104900
     13 F13         -8.5040     0.2810     3.2200 f          1 3XA      -0.123900
     14 C14         -8.6870     2.1460     1.7700 ca         1 3XA      -0.114000
     15 C15         -8.0820     3.1010     0.9750 ca         1 3XA      -0.077000
     16 C16         -6.7050     3.1300     0.8540 ca         1 3XA      -0.078000
     17 N1A          2.2420    -0.7380     4.2750 nb         1 3XA      -0.661000
     18 C2'          1.9640    -1.3060    -0.6250 c3         1 3XA       0.108800
     19 C2A          1.3440     0.1280     3.8440 ca         1 3XA       0.431600
     20 C3'          1.4290     0.0000     0.0000 c3         1 3XA       0.171100
     21 C3A          0.8930     1.1450     4.6610 ca         1 3XA      -0.284300
     22 C4'          1.9640     0.0000     1.4470 c3         1 3XA      -0.042700
     23 C4A          1.3940     1.2550     5.9510 ca         1 3XA      -0.005300
     24 C5'          2.7780    -1.3050     1.5740 c3         1 3XA       0.141800
     25 C5A          2.3350     0.3330     6.3740 ca         1 3XA      -0.313300
     26 C6A          2.7440    -0.6670     5.4980 ca         1 3XA       0.514200
     27 N6A          3.6890    -1.5990     5.9100 nv         1 3XA      -0.542500
     28 C7A          0.8030     0.0030     2.4430 c3         1 3XA      -0.070700
     29 C8A          0.9260     2.3540     6.8690 c3         1 3XA       0.060200
     30 H2          -0.2610     1.6260    -1.2390 h1         1 3XA      -0.006800
     31 H2A         -0.2610     0.0510    -2.0440 h1         1 3XA      -0.006800
     32 H3          -2.5460     0.9090    -1.9740 h1         1 3XA       0.014200
     33 H3A         -2.4210    -0.4840    -0.8910 h1         1 3XA       0.014200
     34 HN4         -2.2450     2.3180    -0.0760 hn         1 3XA       0.261800
     35 H5          -4.4650     1.7220    -0.7060 h1         1 3XA       0.032200
     36 H5A         -4.3390     0.3290     0.3770 h1         1 3XA       0.032200
     37 HN1'         3.3520    -2.6220     0.1120 hn         1 3XA       0.251800
     38 H12         -5.9270     0.5240     2.8540 ha         1 3XA       0.135000
     39 H14         -9.7660     2.1260     1.8660 ha         1 3XA       0.121000
     40 H15         -8.6870     3.8310     0.4510 ha         1 3XA       0.111000
     41 H16         -6.2320     3.8790     0.2310 ha         1 3XA       0.119000
     42 H2'          2.2380    -1.1430    -1.6610 h1         1 3XA       0.015700
     43 H2'A         1.2250    -2.0940    -0.5430 h1         1 3XA       0.015700
     44 H3'          1.8110     0.8580    -0.5400 h1         1 3XA       0.016700
     45 H3AA         0.1550     1.8510     4.2990 ha         1 3XA       0.124000
     46 H4'          2.6060     0.8580     1.6070 hc         1 3XA       0.037700
     47 H5'          2.1630    -2.0930     1.9930 h1         1 3XA       0.026200
     48 H5'A         3.6590    -1.1410     2.1820 h1         1 3XA       0.026200
     49 H5AA         2.7480     0.3890     7.3740 ha         1 3XA       0.117000
     50 HN6A         4.1860    -1.4620     6.7680 hn         1 3XA       0.268800
     51 HN6B         3.8420    -2.4280     5.3700 hn         1 3XA       0.268800
     52 H7A          0.1480     0.8410     2.2330 hc         1 3XA       0.039700
     53 H7AA         0.2460    -0.9220     2.3520 hc         1 3XA       0.039700
     54 H8A          1.6260     2.4630     7.6890 hc         1 3XA       0.009700
     55 H8AA        -0.0530     2.1050     7.2610 hc         1 3XA       0.009700
     56 H8AB         0.8670     3.2850     6.3180 hc         1 3XA       0.009700
@<TRIPOS>BOND
     1     1     2 1   
     2     1    20 1   
     3     2     3 1   
     4     2    30 1   
     5     2    31 1   
     6     3     4 1   
     7     3    32 1   
     8     3    33 1   
     9     4     5 1   
    10     4    34 1   
    11     5     6 1   
    12     5    35 1   
    13     5    36 1   
    14     6     7 1   
    15     6     8 1   
    16     6    10 1   
    17     9    18 1   
    18     9    24 1   
    19     9    37 1   
    20    10    11 ar  
    21    10    16 ar  
    22    11    12 ar  
    23    11    38 1   
    24    12    13 1   
    25    12    14 ar  
    26    14    15 ar  
    27    14    39 1   
    28    15    16 ar  
    29    15    40 1   
    30    16    41 1   
    31    17    19 ar  
    32    17    26 ar  
    33    18    20 1   
    34    18    42 1   
    35    18    43 1   
    36    19    21 ar  
    37    19    28 1   
    38    20    22 1   
    39    20    44 1   
    40    21    23 ar  
    41    21    45 1   
    42    22    24 1   
    43    22    28 1   
    44    22    46 1   
    45    23    25 ar  
    46    23    29 1   
    47    24    47 1   
    48    24    48 1   
    49    25    26 ar  
    50    25    49 1   
    51    26    27 1   
    52    27    50 1   
    53    27    51 1   
    54    28    52 1   
    55    28    53 1   
    56    29    54 1   
    57    29    55 1   
    58    29    56 1   
@<TRIPOS>SUBSTRUCTURE
     1 3XA         1 TEMP              0 ****  ****    0 ROOT
