@<TRIPOS>MOLECULE
3XB
   56    58     1     0     0
SMALL
bcc


@<TRIPOS>ATOM
      1 C1           0.0000     0.0000     0.0000 c3         1 3XB       0.210400
      2 O1           1.4300     0.0000     0.0000 os         1 3XB      -0.389600
      3 C2          -0.5090    -0.0000    -1.4430 c3         1 3XB       0.139800
      4 N2          -0.1210    -1.2560    -2.1000 n7         1 3XB      -0.563200
      5 C3          -0.5940    -1.2910    -3.4900 c3         1 3XB       0.096800
      6 C4          -0.1710    -2.6110    -4.1390 c3         1 3XB       0.445900
      7 F5           1.2250    -2.7140    -4.1180 f          1 3XB      -0.215300
      8 F6          -0.7280    -3.6800    -3.4280 f          1 3XB      -0.215300
      9 N1'          3.5450    -1.3780     2.5270 n7         1 3XB      -0.581200
     10 C11         -0.6560    -2.6480    -5.5640 ca         1 3XB      -0.150300
     11 C12          0.1440    -2.1580    -6.5800 ca         1 3XB      -0.094000
     12 C13         -0.3020    -2.1920    -7.8900 ca         1 3XB       0.103900
     13 F13          0.4800    -1.7140    -8.8830 f          1 3XB      -0.123900
     14 C14         -1.5510    -2.7160    -8.1820 ca         1 3XB      -0.113000
     15 C15         -2.3490    -3.2040    -7.1650 ca         1 3XB      -0.078000
     16 C16         -1.9000    -3.1750    -5.8580 ca         1 3XB      -0.078000
     17 N1A          5.2020     2.8980     0.6620 nb         1 3XB      -0.637000
     18 C2'          2.2610    -1.4470     1.7810 c3         1 3XB       0.106800
     19 C2A          5.0510     1.8600    -0.1390 ca         1 3XB       0.416600
     20 C3'          2.0100     0.0000     1.3060 c3         1 3XB       0.173100
     21 C3A          6.0770     1.4510    -0.9680 ca         1 3XB      -0.270300
     22 C4'          3.4050     0.6590     1.2720 c3         1 3XB      -0.049700
     23 C4A          7.2810     2.1440    -0.9540 ca         1 3XB      -0.020300
     24 C5'          4.3820    -0.4460     1.7290 c3         1 3XB       0.137800
     25 C5A          7.4090     3.2270    -0.1040 ca         1 3XB      -0.288300
     26 C6A          6.3340     3.5850     0.7040 ca         1 3XB       0.508200
     27 N6A          6.4490     4.6710     1.5630 nv         1 3XB      -0.573500
     28 C7A          3.7440     1.1120    -0.1490 c3         1 3XB      -0.066700
     29 C8A          8.4210     1.7250    -1.8460 c3         1 3XB       0.061200
     30 H1          -0.3610     0.8850     0.5100 h1         1 3XB      -0.006300
     31 H1A         -0.3610    -0.8840     0.5110 h1         1 3XB      -0.006300
     32 H2          -0.0770     0.8360    -1.9780 h1         1 3XB       0.014200
     33 H2A         -1.5890     0.0890    -1.4450 h1         1 3XB       0.014200
     34 HN2         -0.5070    -2.0290    -1.5960 hn         1 3XB       0.260800
     35 H3          -0.1620    -0.4640    -4.0400 h1         1 3XB       0.032200
     36 H3A         -1.6740    -1.2100    -3.5060 h1         1 3XB       0.032200
     37 HN1'         3.9720    -2.2830     2.5400 hn         1 3XB       0.251800
     38 H12          1.1220    -1.7530    -6.3520 ha         1 3XB       0.135000
     39 H14         -1.9020    -2.7410    -9.2070 ha         1 3XB       0.121000
     40 H15         -3.3250    -3.6150    -7.3930 ha         1 3XB       0.111000
     41 H16         -2.5270    -3.5580    -5.0620 ha         1 3XB       0.119000
     42 H2'          2.3550    -2.1120     0.9310 h1         1 3XB       0.019700
     43 H2'A         1.4620    -1.7720     2.4370 h1         1 3XB       0.019700
     44 H3'          1.3690     0.5180     2.0090 h1         1 3XB       0.016700
     45 H3AA         5.9440     0.5980    -1.6230 ha         1 3XB       0.121000
     46 H4'          3.4400     1.4960     1.9590 hc         1 3XB       0.055700
     47 H5'          4.8000    -0.9570     0.8710 h1         1 3XB       0.016700
     48 H5'A         5.1660    -0.0230     2.3450 h1         1 3XB       0.016700
     49 H5A          8.3340     3.7900    -0.0680 ha         1 3XB       0.118000
     50 HN6A         7.3050     4.8280     2.0580 hn         1 3XB       0.270300
     51 HN6B         5.6730     5.2870     1.6970 hn         1 3XB       0.270300
     52 H7A          2.9590     1.7620    -0.5180 hc         1 3XB       0.036700
     53 H7AA         3.8280     0.2460    -0.7950 hc         1 3XB       0.036700
     54 H8A          8.5160     0.6460    -1.8280 hc         1 3XB       0.009700
     55 H8AA         8.2260     2.0540    -2.8590 hc         1 3XB       0.009700
     56 H8AB         9.3400     2.1750    -1.4910 hc         1 3XB       0.009700
@<TRIPOS>BOND
     1     1     2 1   
     2     1     3 1   
     3     1    30 1   
     4     1    31 1   
     5     2    20 1   
     6     3     4 1   
     7     3    32 1   
     8     3    33 1   
     9     4     5 1   
    10     4    34 1   
    11     5     6 1   
    12     5    35 1   
    13     5    36 1   
    14     6     7 1   
    15     6     8 1   
    16     6    10 1   
    17     9    18 1   
    18     9    24 1   
    19     9    37 1   
    20    10    11 ar  
    21    10    16 ar  
    22    11    12 ar  
    23    11    38 1   
    24    12    13 1   
    25    12    14 ar  
    26    14    15 ar  
    27    14    39 1   
    28    15    16 ar  
    29    15    40 1   
    30    16    41 1   
    31    17    19 ar  
    32    17    26 ar  
    33    18    20 1   
    34    18    42 1   
    35    18    43 1   
    36    19    21 ar  
    37    19    28 1   
    38    20    22 1   
    39    20    44 1   
    40    21    23 ar  
    41    21    45 1   
    42    22    24 1   
    43    22    28 1   
    44    22    46 1   
    45    23    25 ar  
    46    23    29 1   
    47    24    47 1   
    48    24    48 1   
    49    25    26 ar  
    50    25    49 1   
    51    26    27 1   
    52    27    50 1   
    53    27    51 1   
    54    28    52 1   
    55    28    53 1   
    56    29    54 1   
    57    29    55 1   
    58    29    56 1   
@<TRIPOS>SUBSTRUCTURE
     1 3XB         1 TEMP              0 ****  ****    0 ROOT
