@<TRIPOS>MOLECULE
3XC
   56    58     1     0     0
SMALL
bcc


@<TRIPOS>ATOM
      1 C1           0.0000     0.0000     0.0000 c3         1 3XC       0.210400
      2 O1           1.4290     0.0000     0.0000 os         1 3XC      -0.389600
      3 C2          -0.5090    -0.0010    -1.4430 c3         1 3XC       0.139800
      4 N2          -0.1210    -1.2560    -2.1000 n7         1 3XC      -0.563200
      5 C3          -0.5940    -1.2910    -3.4890 c3         1 3XC       0.096800
      6 C4          -0.1710    -2.6100    -4.1390 c3         1 3XC       0.447900
      7 F5           1.2240    -2.7140    -4.1180 f          1 3XC      -0.216300
      8 F6          -0.7280    -3.6790    -3.4290 f          1 3XC      -0.216300
      9 N1'          3.5440    -1.3780     2.5270 n7         1 3XC      -0.581200
     10 C11         -0.6570    -2.6470    -5.5650 ca         1 3XC      -0.190300
     11 C12          0.1440    -2.1570    -6.5800 ca         1 3XC      -0.035000
     12 C13         -0.3010    -2.1900    -7.8880 ca         1 3XC      -0.137000
     13 C14         -1.5490    -2.7130    -8.1820 ca         1 3XC       0.124900
     14 F14         -1.9840    -2.7470    -9.4600 f          1 3XC      -0.124900
     15 C15         -2.3500    -3.2040    -7.1640 ca         1 3XC      -0.137000
     16 C16         -1.9000    -3.1750    -5.8570 ca         1 3XC      -0.035000
     17 N1A          5.2010     2.8990     0.6620 nb         1 3XC      -0.635000
     18 C2'          2.2610    -1.4470     1.7810 c3         1 3XC       0.106800
     19 C2A          5.0510     1.8620    -0.1400 ca         1 3XC       0.416600
     20 C3'          2.0090     0.0000     1.3060 c3         1 3XC       0.173100
     21 C3A          6.0750     1.4530    -0.9690 ca         1 3XC      -0.270300
     22 C4'          3.4040     0.6600     1.2720 c3         1 3XC      -0.049700
     23 C4A          7.2790     2.1460    -0.9550 ca         1 3XC      -0.020300
     24 C5'          4.3810    -0.4450     1.7290 c3         1 3XC       0.137800
     25 C5A          7.4070     3.2290    -0.1060 ca         1 3XC      -0.288300
     26 C6A          6.3320     3.5850     0.7040 ca         1 3XC       0.508200
     27 N6A          6.4470     4.6720     1.5630 nv         1 3XC      -0.574500
     28 C7A          3.7430     1.1130    -0.1500 c3         1 3XC      -0.066700
     29 C8A          8.4190     1.7280    -1.8470 c3         1 3XC       0.061200
     30 H1          -0.3610    -0.8840     0.5110 h1         1 3XC      -0.006300
     31 H1A         -0.3610     0.8850     0.5100 h1         1 3XC      -0.006300
     32 H2          -0.0770     0.8360    -1.9790 h1         1 3XC       0.013700
     33 H2A         -1.5890     0.0890    -1.4450 h1         1 3XC       0.013700
     34 HN2         -0.5070    -2.0290    -1.5960 hn         1 3XC       0.261800
     35 H3          -0.1630    -0.4630    -4.0390 h1         1 3XC       0.031700
     36 H3A         -1.6750    -1.2110    -3.5050 h1         1 3XC       0.031700
     37 HN1'         3.9720    -2.2830     2.5390 hn         1 3XC       0.251800
     38 H12          1.1200    -1.7480    -6.3510 ha         1 3XC       0.121000
     39 H13          0.3260    -1.8070    -8.6840 ha         1 3XC       0.123500
     40 H15         -3.3250    -3.6160    -7.3920 ha         1 3XC       0.123500
     41 H16         -2.5270    -3.5590    -5.0610 ha         1 3XC       0.121000
     42 H2'          1.4620    -1.7730     2.4360 h1         1 3XC       0.019200
     43 H2'A         2.3560    -2.1110     0.9300 h1         1 3XC       0.019200
     44 H3'          1.3680     0.5180     2.0090 h1         1 3XC       0.016700
     45 H3AA         5.9430     0.6000    -1.6240 ha         1 3XC       0.121000
     46 H4'          3.4390     1.4970     1.9590 hc         1 3XC       0.055700
     47 H5'          4.7990    -0.9560     0.8710 h1         1 3XC       0.016200
     48 H5'A         5.1650    -0.0230     2.3450 h1         1 3XC       0.016200
     49 H5A          8.3320     3.7920    -0.0690 ha         1 3XC       0.118000
     50 HN6A         7.3030     4.8320     2.0560 hn         1 3XC       0.270300
     51 HN6B         5.6720     5.2920     1.6920 hn         1 3XC       0.270300
     52 H7A          2.9580     1.7620    -0.5190 hc         1 3XC       0.036700
     53 H7AA         3.8280     0.2470    -0.7950 hc         1 3XC       0.036700
     54 H8A          9.1340     2.5380    -1.9240 hc         1 3XC       0.009700
     55 H8AA         8.0380     1.4880    -2.8320 hc         1 3XC       0.009700
     56 H8AB         8.9060     0.8560    -1.4260 hc         1 3XC       0.009700
@<TRIPOS>BOND
     1     1     2 1   
     2     1     3 1   
     3     1    30 1   
     4     1    31 1   
     5     2    20 1   
     6     3     4 1   
     7     3    32 1   
     8     3    33 1   
     9     4     5 1   
    10     4    34 1   
    11     5     6 1   
    12     5    35 1   
    13     5    36 1   
    14     6     7 1   
    15     6     8 1   
    16     6    10 1   
    17     9    18 1   
    18     9    24 1   
    19     9    37 1   
    20    10    11 ar  
    21    10    16 ar  
    22    11    12 ar  
    23    11    38 1   
    24    12    13 ar  
    25    12    39 1   
    26    13    14 1   
    27    13    15 ar  
    28    15    16 ar  
    29    15    40 1   
    30    16    41 1   
    31    17    19 ar  
    32    17    26 ar  
    33    18    20 1   
    34    18    42 1   
    35    18    43 1   
    36    19    21 ar  
    37    19    28 1   
    38    20    22 1   
    39    20    44 1   
    40    21    23 ar  
    41    21    45 1   
    42    22    24 1   
    43    22    28 1   
    44    22    46 1   
    45    23    25 ar  
    46    23    29 1   
    47    24    47 1   
    48    24    48 1   
    49    25    26 ar  
    50    25    49 1   
    51    26    27 1   
    52    27    50 1   
    53    27    51 1   
    54    28    52 1   
    55    28    53 1   
    56    29    54 1   
    57    29    55 1   
    58    29    56 1   
@<TRIPOS>SUBSTRUCTURE
     1 3XC         1 TEMP              0 ****  ****    0 ROOT
