@<TRIPOS>MOLECULE
molecule
   56    58     1     0     0
SMALL
bcc


@<TRIPOS>ATOM
      1 C1           0.0000     0.0000     0.0000 c3         1 3XD       0.140400
      2 O1           1.4300     0.0000     0.0000 os         1 3XD      -0.408600
      3 C2          -0.5100     0.0000    -1.4420 c3         1 3XD       0.159800
      4 N2          -0.1220    -1.2550    -2.1000 n7         1 3XD      -0.800200
      5 C3          -0.5970    -1.2900    -3.4890 c3         1 3XD       0.119800
      6 C4          -0.1730    -2.6090    -4.1390 c3         1 3XD       0.462900
      7 F5           1.2220    -2.7120    -4.1200 f          1 3XD      -0.229300
      8 F6          -0.7290    -3.6780    -3.4290 f          1 3XD      -0.229300
      9 N1'          3.5460    -1.3780     2.5250 n7         1 3XD      -0.792200
     10 C11         -0.6600    -2.6450    -5.5650 ca         1 3XD      -0.159300
     11 C12         -1.9090    -3.1630    -5.8560 ca         1 3XD      -0.095500
     12 C13         -2.3540    -3.1970    -7.1640 ca         1 3XD      -0.132000
     13 C14         -1.5530    -2.7130    -8.1810 ca         1 3XD      -0.111000
     14 C15         -0.3050    -2.1940    -7.8900 ca         1 3XD      -0.132000
     15 C16          0.1390    -2.1560    -6.5810 ca         1 3XD      -0.095500
     16 N1A          5.2020     2.8990     0.6590 nb         1 3XD      -0.760000
     17 C2'          2.2640    -1.4470     1.7790 c3         1 3XD       0.109800
     18 C2A          5.0510     1.8630    -0.1420 ca         1 3XD       0.468600
     19 C3'          2.0110     0.0000     1.3050 c3         1 3XD       0.136100
     20 C3A          6.0760     1.4530    -0.9720 ca         1 3XD      -0.300300
     21 C4'          3.4050     0.6590     1.2690 c3         1 3XD      -0.061700
     22 C4A          7.2790     2.1460    -0.9600 ca         1 3XD      -0.015300
     23 C5'          4.3830    -0.4460     1.7260 c3         1 3XD       0.138800
     24 C5A          7.4070     3.2300    -0.1090 ca         1 3XD      -0.316300
     25 C6A          6.3340     3.5860     0.7000 ca         1 3XD       0.702200
     26 N6A          6.4490     4.6720     1.5600 nv         1 3XD      -1.032500
     27 C7A          3.7430     1.1130    -0.1520 c3         1 3XD      -0.111700
     28 C8A          8.4190     1.7280    -1.8520 c3         1 3XD      -0.049800
     29 H1          -0.3610     0.8840     0.5110 h1         1 3XD       0.026200
     30 H1A         -0.3610    -0.8850     0.5110 h1         1 3XD       0.026200
     31 H2          -0.0790     0.8370    -1.9780 h1         1 3XD       0.042700
     32 H2A         -1.5900     0.0890    -1.4430 h1         1 3XD       0.042700
     33 HN2         -0.5080    -2.0290    -1.5960 hn         1 3XD       0.361800
     34 H3          -0.1660    -0.4620    -4.0390 h1         1 3XD       0.055700
     35 H3A         -1.6770    -1.2100    -3.5050 h1         1 3XD       0.055700
     36 HN1'         3.9740    -2.2830     2.5370 hn         1 3XD       0.346800
     37 H12         -2.5370    -3.5420    -5.0590 ha         1 3XD       0.143500
     38 H13         -3.3330    -3.6030    -7.3930 ha         1 3XD       0.135500
     39 H14         -1.9020    -2.7410    -9.2060 ha         1 3XD       0.133000
     40 H15          0.3220    -1.8130    -8.6870 ha         1 3XD       0.135500
     41 H16          1.1170    -1.7490    -6.3530 ha         1 3XD       0.143500
     42 H2'          1.4650    -1.7730     2.4340 h1         1 3XD       0.048200
     43 H2'A         2.3580    -2.1110     0.9290 h1         1 3XD       0.048200
     44 H3'          1.3710     0.5180     2.0080 h1         1 3XD       0.047700
     45 H3AA         5.9430     0.6010    -1.6270 ha         1 3XD       0.139000
     46 H4'          3.4400     1.4960     1.9560 hc         1 3XD       0.084700
     47 H5'          4.8010    -0.9570     0.8670 h1         1 3XD       0.045200
     48 H5'A         5.1680    -0.0230     2.3410 h1         1 3XD       0.045200
     49 H5A          8.3310     3.7940    -0.0740 ha         1 3XD       0.134000
     50 HN6A         7.3350     4.8950     1.9680 hn         1 3XD       0.436800
     51 HN6B         5.6470     5.2350     1.7650 hn         1 3XD       0.436800
     52 H7A          2.9580     1.7620    -0.5200 hc         1 3XD       0.069200
     53 H7AA         3.8280     0.2470    -0.7970 hc         1 3XD       0.069200
     54 H8A          8.5190     0.6500    -1.8290 hc         1 3XD       0.046367
     55 H8AA         9.3370     2.1840    -1.5010 hc         1 3XD       0.046367
     56 H8AB         8.2200     2.0510    -2.8670 hc         1 3XD       0.046367
@<TRIPOS>BOND
     1     3     1 1   
     2     1     2 1   
     3     1    29 1   
     4     1    30 1   
     5     2    19 1   
     6     3     4 1   
     7     3    31 1   
     8     3    32 1   
     9     5     4 1   
    10     4    33 1   
    11     6     5 1   
    12     5    34 1   
    13     5    35 1   
    14     7     6 1   
    15    10     6 1   
    16     6     8 1   
    17    17     9 1   
    18    23     9 1   
    19     9    36 1   
    20    11    10 ar  
    21    10    15 ar  
    22    12    11 ar  
    23    11    37 1   
    24    12    13 ar  
    25    12    38 1   
    26    13    14 ar  
    27    13    39 1   
    28    14    15 ar  
    29    14    40 1   
    30    15    41 1   
    31    16    18 ar  
    32    16    25 ar  
    33    19    17 1   
    34    17    42 1   
    35    17    43 1   
    36    27    18 1   
    37    18    20 ar  
    38    19    21 1   
    39    19    44 1   
    40    20    22 ar  
    41    20    45 1   
    42    27    21 1   
    43    21    23 1   
    44    21    46 1   
    45    24    22 ar  
    46    22    28 1   
    47    23    47 1   
    48    23    48 1   
    49    25    24 ar  
    50    24    49 1   
    51    26    25 1   
    52    26    50 1   
    53    26    51 1   
    54    27    52 1   
    55    27    53 1   
    56    28    54 1   
    57    28    55 1   
    58    28    56 1   
@<TRIPOS>SUBSTRUCTURE
     1 3XD         1 TEMP              0 ****  ****    0 ROOT
