@<TRIPOS>MOLECULE
molecule
   61    63     1     0     0
SMALL
bcc


@<TRIPOS>ATOM
      1 C1           0.0000     0.0000     0.0000 c3         1 3XE       0.138400
      2 O1           1.4290     0.0000     0.0000 os         1 3XE      -0.418600
      3 C2          -0.5100    -0.0010    -1.4420 c3         1 3XE       0.159800
      4 N2          -0.1210    -1.2550    -2.1000 n7         1 3XE      -0.810200
      5 C3          -0.5960    -1.2900    -3.4900 c3         1 3XE       0.118800
      6 C4          -0.1710    -2.6090    -4.1390 c3         1 3XE       0.464900
      7 F5           1.2230    -2.7110    -4.1200 f          1 3XE      -0.231800
      8 F6          -0.7280    -3.6780    -3.4300 f          1 3XE      -0.231800
      9 N1'          3.5460    -1.3780     2.5250 n7         1 3XE      -0.787200
     10 C11         -0.6580    -2.6450    -5.5650 ca         1 3XE      -0.165300
     11 C12          0.1420    -2.1550    -6.5810 ca         1 3XE      -0.096500
     12 C13         -0.3050    -2.1890    -7.8890 ca         1 3XE      -0.129000
     13 C14         -1.5500    -2.7110    -8.1810 ca         1 3XE      -0.105000
     14 C15         -2.3500    -3.2010    -7.1660 ca         1 3XE      -0.129000
     15 C16         -1.9010    -3.1730    -5.8580 ca         1 3XE      -0.096500
     16 N1A          6.1420     0.9660     0.2410 n2         1 3XE      -0.544900
     17 C2'          2.2630    -1.4470     1.7800 c3         1 3XE       0.112800
     18 C2A          5.0700     1.8750    -0.1410 c3         1 3XE       0.136500
     19 C3'          2.0100     0.0000     1.3050 c3         1 3XE       0.140100
     20 C3A          5.3290     2.4560    -1.5320 c3         1 3XE      -0.116400
     21 C4'          3.4040     0.6600     1.2700 c3         1 3XE      -0.069700
     22 C4A          6.7660     2.9920    -1.5740 c3         1 3XE      -0.069700
     23 C5'          4.3820    -0.4440     1.7270 c3         1 3XE       0.150800
     24 C5A          7.7230     1.8030    -1.4440 c3         1 3XE      -0.155700
     25 C6A          7.2940     0.9230    -0.3060 c2         1 3XE       0.421200
     26 N6A          8.1990     0.0170     0.1780 nz         1 3XE      -0.742600
     27 C7A          3.7420     1.1150    -0.1500 c3         1 3XE      -0.054400
     28 C8A          7.0120     3.7090    -2.9020 c3         1 3XE      -0.087100
     29 H1          -0.3610     0.8850     0.5100 h1         1 3XE       0.033200
     30 H1A         -0.3610    -0.8840     0.5110 h1         1 3XE       0.033200
     31 H2          -0.0800     0.8370    -1.9780 h1         1 3XE       0.046200
     32 H2A         -1.5900     0.0870    -1.4430 h1         1 3XE       0.046200
     33 HN2         -0.5060    -2.0290    -1.5960 hn         1 3XE       0.365800
     34 H3          -1.6760    -1.2120    -3.5050 h1         1 3XE       0.058700
     35 H3A         -0.1660    -0.4620    -4.0390 h1         1 3XE       0.058700
     36 HN1'         3.9740    -2.2820     2.5370 hn         1 3XE       0.350800
     37 H12          1.1180    -1.7460    -6.3530 ha         1 3XE       0.140500
     38 H13          0.3220    -1.8050    -8.6840 ha         1 3XE       0.139000
     39 H14         -1.9000    -2.7350    -9.2060 ha         1 3XE       0.138000
     40 H15         -3.3250    -3.6130    -7.3960 ha         1 3XE       0.139000
     41 H16         -2.5280    -3.5570    -5.0620 ha         1 3XE       0.140500
     42 H2'          1.4640    -1.7730     2.4350 h1         1 3XE       0.059700
     43 H2'A         2.3570    -2.1110     0.9290 h1         1 3XE       0.059700
     44 H2AA         5.0180     2.6840     0.5770 h1         1 3XE       0.106700
     45 H3'          1.3690     0.5180     2.0090 h1         1 3XE       0.058700
     46 H3AA         5.2090     1.6800    -2.2780 hc         1 3XE       0.078700
     47 H3AB         4.6340     3.2640    -1.7240 hc         1 3XE       0.078700
     48 H4'          3.4380     1.4970     1.9570 hc         1 3XE       0.068700
     49 H4A          6.9230     3.6760    -0.7490 hc         1 3XE       0.068700
     50 H5'          4.8010    -0.9540     0.8690 h1         1 3XE       0.029200
     51 H5'A         5.1660    -0.0210     2.3440 h1         1 3XE       0.029200
     52 H5A          8.7250     2.1690    -1.2560 hc         1 3XE       0.077200
     53 H5AA         7.7090     1.2300    -2.3630 hc         1 3XE       0.077200
     54 HN6A         7.9070    -0.9090    -0.0640 hn         1 3XE       0.465133
     55 HN6B         9.0990     0.1980    -0.2210 hn         1 3XE       0.465133
     56 H7A          2.9570     1.7640    -0.5180 hc         1 3XE       0.080700
     57 H7AA         3.8260     0.2490    -0.7960 hc         1 3XE       0.080700
     58 H8A          6.3260     4.5430    -2.9950 hc         1 3XE       0.053367
     59 H8AA         6.8520     3.0180    -3.7210 hc         1 3XE       0.053367
     60 H8AB         8.0310     4.0750    -2.9320 hc         1 3XE       0.053367
     61 H6A3         8.2460     0.0920     1.1750 hn         1 3XE       0.465133
@<TRIPOS>BOND
     1     2     1 1
     2     1     3 1
     3     1    29 1
     4     1    30 1
     5    19     2 1
     6     4     3 1
     7     3    31 1
     8     3    32 1
     9     4     5 1
    10     4    33 1
    11     5     6 1
    12     5    34 1
    13     5    35 1
    14     8     6 1
    15     6    10 1
    16     6     7 1
    17     9    23 1
    18     9    17 1
    19     9    36 1
    20    15    10 ar
    21    10    11 ar
    22    11    12 ar
    23    11    37 1
    24    13    12 ar
    25    12    38 1
    26    14    13 ar
    27    13    39 1
    28    15    14 ar
    29    14    40 1
    30    15    41 1
    31    25    16 2
    32    18    16 1
    33    17    19 1
    34    17    42 1
    35    17    43 1
    36    20    18 1
    37    18    27 1
    38    18    44 1
    39    21    19 1
    40    19    45 1
    41    22    20 1
    42    20    46 1
    43    20    47 1
    44    23    21 1
    45    21    27 1
    46    21    48 1
    47    28    22 1
    48    22    24 1
    49    22    49 1
    50    23    50 1
    51    23    51 1
    52    24    25 1
    53    24    52 1
    54    24    53 1
    55    25    26 1
    56    26    54 1
    57    26    55 1
    58    27    56 1
    59    27    57 1
    60    28    58 1
    61    28    59 1
    62    28    60 1
    63    61    26 1
@<TRIPOS>SUBSTRUCTURE
     1 3XE         1 TEMP              0 ****  ****    0 ROOT
