@<TRIPOS>MOLECULE
3XF
   61    63     1     0     0
SMALL
bcc


@<TRIPOS>ATOM
      1 O1           0.0000     0.0000     0.0000 os         1 3XF      -0.389600
      2 C2          -0.5820     0.5940    -1.1620 c3         1 3XF       0.210400
      3 C3          -2.1070     0.5400    -1.0540 c3         1 3XF       0.138800
      4 N4          -2.5480     1.3740     0.0700 n7         1 3XF      -0.560200
      5 C5          -4.0110     1.3460     0.2060 c3         1 3XF       0.084800
      6 C6          -4.4320     2.2260     1.3850 c3         1 3XF       0.386600
      7 F7          -3.8470     1.7410     2.5600 f          1 3XF      -0.213300
      8 F8          -4.0090     3.5410     1.1600 f          1 3XF      -0.213300
      9 N1'          3.1670    -1.6410     0.1790 n7         1 3XF      -0.587200
     10 N11         -6.5700     2.7040     0.2910 n7         1 3XF      -0.572200
     11 C12         -5.9550     2.1960     1.5240 c3         1 3XF       0.073500
     12 C13         -6.3760     3.0740     2.7050 c3         1 3XF      -0.027400
     13 C14         -7.9020     3.0580     2.8290 c3         1 3XF      -0.022400
     14 C15         -8.5170     3.5460     1.5150 c3         1 3XF      -0.027400
     15 C16         -8.0350     2.6540     0.3680 c3         1 3XF       0.152800
     16 N1A          2.2440    -0.7370     4.2750 nb         1 3XF      -0.661000
     17 C2'          1.9640    -1.3060    -0.6260 c3         1 3XF       0.108800
     18 C2A          1.3450     0.1280     3.8450 ca         1 3XF       0.431600
     19 C3'          1.4280     0.0000     0.0000 c3         1 3XF       0.172100
     20 C3A          0.8950     1.1460     4.6620 ca         1 3XF      -0.283300
     21 C4'          1.9640     0.0000     1.4470 c3         1 3XF      -0.042700
     22 C4A          1.3970     1.2550     5.9510 ca         1 3XF      -0.006300
     23 C5'          2.7790    -1.3060     1.5740 c3         1 3XF       0.142800
     24 C5A          2.3380     0.3340     6.3740 ca         1 3XF      -0.311300
     25 C6A          2.7460    -0.6660     5.4980 ca         1 3XF       0.513200
     26 N6A          3.6900    -1.5990     5.9090 nv         1 3XF      -0.542500
     27 C7A          0.8030     0.0030     2.4440 c3         1 3XF      -0.070700
     28 C8A          0.9280     2.3550     6.8690 c3         1 3XF       0.060200
     29 H2          -0.2630     0.0510    -2.0440 h1         1 3XF      -0.006800
     30 H2A         -0.2620     1.6260    -1.2390 h1         1 3XF      -0.006800
     31 H3          -2.5470     0.9090    -1.9720 h1         1 3XF       0.013200
     32 H3A         -2.4210    -0.4830    -0.8890 h1         1 3XF       0.013200
     33 HN4         -2.2450     2.3170    -0.0740 hn         1 3XF       0.263800
     34 H5          -4.4650     1.7200    -0.7040 h1         1 3XF       0.031200
     35 H5A         -4.3380     0.3280     0.3800 h1         1 3XF       0.031200
     36 HN1'         3.3520    -2.6220     0.1110 hn         1 3XF       0.250800
     37 HN11        -6.2580     2.1580    -0.4870 hn         1 3XF       0.254800
     38 H12         -6.2860     1.1800     1.6970 h1         1 3XF       0.029700
     39 H13         -6.0390     4.0900     2.5370 hc         1 3XF       0.035200
     40 H13A        -5.9360     2.6870     3.6160 hc         1 3XF       0.035200
     41 H14         -8.2370     2.0480     3.0320 hc         1 3XF       0.015200
     42 H14A        -8.2050     3.7150     3.6360 hc         1 3XF       0.015200
     43 H15         -8.2100     4.5690     1.3310 hc         1 3XF       0.022200
     44 H15A        -9.5970     3.4940     1.5820 hc         1 3XF       0.022200
     45 H16         -8.4560     3.0090    -0.5650 h1         1 3XF       0.006700
     46 H16A        -8.3510     1.6340     0.5480 h1         1 3XF       0.006700
     47 H2'          2.2380    -1.1430    -1.6610 h1         1 3XF       0.015200
     48 H2'A         1.2250    -2.0940    -0.5430 h1         1 3XF       0.015200
     49 H3'          1.8100     0.8580    -0.5400 h1         1 3XF       0.016700
     50 H3AA         0.1570     1.8520     4.3000 ha         1 3XF       0.125000
     51 H4'          2.6060     0.8580     1.6070 hc         1 3XF       0.037700
     52 H5'          3.6610    -1.1410     2.1810 h1         1 3XF       0.025700
     53 H5'A         2.1650    -2.0930     1.9930 h1         1 3XF       0.025700
     54 H5AA         2.7510     0.3900     7.3740 ha         1 3XF       0.118000
     55 HN6A         3.8610    -2.4150     5.3560 hn         1 3XF       0.268800
     56 HN6B         4.2240    -1.4370     6.7400 hn         1 3XF       0.268800
     57 H7A          0.1490     0.8410     2.2330 hc         1 3XF       0.040200
     58 H7AA         0.2460    -0.9210     2.3530 hc         1 3XF       0.040200
     59 H8A         -0.0510     2.1050     7.2620 hc         1 3XF       0.009700
     60 H8AA         0.8680     3.2850     6.3170 hc         1 3XF       0.009700
     61 H8AB         1.6280     2.4650     7.6880 hc         1 3XF       0.009700
@<TRIPOS>BOND
     1     1     2 1   
     2     1    19 1   
     3     2     3 1   
     4     2    29 1   
     5     2    30 1   
     6     3     4 1   
     7     3    31 1   
     8     3    32 1   
     9     4     5 1   
    10     4    33 1   
    11     5     6 1   
    12     5    34 1   
    13     5    35 1   
    14     6     7 1   
    15     6     8 1   
    16     6    11 1   
    17     9    17 1   
    18     9    23 1   
    19     9    36 1   
    20    10    11 1   
    21    10    15 1   
    22    10    37 1   
    23    11    12 1   
    24    11    38 1   
    25    12    13 1   
    26    12    39 1   
    27    12    40 1   
    28    13    14 1   
    29    13    41 1   
    30    13    42 1   
    31    14    15 1   
    32    14    43 1   
    33    14    44 1   
    34    15    45 1   
    35    15    46 1   
    36    16    18 ar  
    37    16    25 ar  
    38    17    19 1   
    39    17    47 1   
    40    17    48 1   
    41    18    20 ar  
    42    18    27 1   
    43    19    21 1   
    44    19    49 1   
    45    20    22 ar  
    46    20    50 1   
    47    21    23 1   
    48    21    27 1   
    49    21    51 1   
    50    22    24 ar  
    51    22    28 1   
    52    23    52 1   
    53    23    53 1   
    54    24    25 ar  
    55    24    54 1   
    56    25    26 1   
    57    26    55 1   
    58    26    56 1   
    59    27    57 1   
    60    27    58 1   
    61    28    59 1   
    62    28    60 1   
    63    28    61 1   
@<TRIPOS>SUBSTRUCTURE
     1 3XF         1 TEMP              0 ****  ****    0 ROOT
