@<TRIPOS>MOLECULE
3XG
   54    57     1     0     0
SMALL
bcc


@<TRIPOS>ATOM
      1 C4           0.0000     0.0000     0.0000 ca         1 3XG      -0.041000
      2 C5           1.3720     0.0000     0.0000 ca         1 3XG      -0.111000
      3 C6           2.0730     0.0000     1.1970 ca         1 3XG      -0.078000
      4 C8          -2.5280     0.0000     2.7480 cc         1 3XG      -0.140600
      5 C13         -3.9060    -0.0010     3.0860 c          1 3XG       0.639700
      6 C17         -8.2390     1.4440     2.8700 c3         1 3XG       0.161800
      7 C1           1.3970    -0.0010     2.3940 ca         1 3XG      -0.064000
      8 C2          -0.0060    -0.0010     2.4150 ca         1 3XG       0.041900
      9 C3          -0.7120     0.0050     1.2170 ca         1 3XG      -0.076800
     10 C16         -6.7460     1.4450     2.5350 c3         1 3XG      -0.055400
     11 C11         -4.4120     0.0000     0.7940 cc         1 3XG       0.336800
     12 C9          -2.1680     0.0050     1.4170 cd         1 3XG       0.193400
     13 O29         -6.5930     0.0070    -3.1050 o          1 3XG      -0.568000
     14 C25         -5.3870     0.0110    -3.1890 c          1 3XG       0.709100
     15 O26         -4.7980     0.0170    -4.3950 os         1 3XG      -0.409900
     16 C27         -5.6710     0.0180    -5.5550 c3         1 3XG       0.229400
     17 C28         -4.8250     0.0250    -6.8300 c3         1 3XG      -0.003100
     18 C24         -4.5450     0.0090    -1.9400 c3         1 3XG       0.033700
     19 S23         -5.6250     0.0000    -0.4860 ss         1 3XG      -0.229300
     20 N10         -3.1440     0.0050     0.4720 nd         1 3XG      -0.561300
     21 N12         -4.8200     0.0030     2.0960 n          1 3XG       0.094700
     22 O14         -4.2580    -0.0070     4.2540 o          1 3XG      -0.662500
     23 S7          -1.1090    -0.0000     3.7810 ss         1 3XG      -0.128500
     24 N18         -8.7160     2.8290     2.9840 n3         1 3XG      -0.541600
     25 C22        -10.0870     2.8730     3.5380 c3         1 3XG       0.148300
     26 C21        -10.8070     4.0590     2.8680 c3         1 3XG      -0.028400
     27 C20         -9.7730     4.6550     1.8850 c3         1 3XG      -0.028400
     28 C19         -8.7980     3.4740     1.6490 c3         1 3XG       0.148300
     29 H1          -0.5390    -0.0000    -0.9400 ha         1 3XG       0.111000
     30 H2           1.9100     0.0000    -0.9400 ha         1 3XG       0.107000
     31 H3           3.1560     0.0000     1.1890 ha         1 3XG       0.107000
     32 H4          -6.7960    -0.5050     1.6320 h1         1 3XG       0.056700
     33 H5          -6.4070    -0.5110     3.3580 h1         1 3XG       0.056700
     34 H6          -8.3980     0.9290     3.8100 h1         1 3XG       0.012200
     35 H7          -8.7850     0.9370     2.0840 h1         1 3XG       0.012200
     36 H8           1.9500    -0.0010     3.3260 ha         1 3XG       0.114000
     37 H9          -6.5870     1.9590     1.5950 hc         1 3XG       0.038700
     38 H10         -6.2000     1.9520     3.3210 hc         1 3XG       0.038700
     39 H11         -6.2990     0.9010    -5.5330 h1         1 3XG       0.010700
     40 H12         -6.2930    -0.8680    -5.5390 h1         1 3XG       0.010700
     41 H13         -5.4770     0.0260    -7.6960 hc         1 3XG       0.012367
     42 H14         -4.1980    -0.8570    -6.8520 hc         1 3XG       0.012367
     43 H15         -4.2030     0.9120    -6.8460 hc         1 3XG       0.012367
     44 H16         -3.9230     0.8960    -1.9220 h1         1 3XG       0.073700
     45 H17         -3.9170    -0.8730    -1.9290 h1         1 3XG       0.073700
     46 H19        -10.6060     1.9500     3.3090 h1         1 3XG       0.014200
     47 H20        -10.0460     3.0250     4.6100 h1         1 3XG       0.014200
     48 H21        -11.6790     3.7110     2.3280 hc         1 3XG       0.018700
     49 H22        -11.0860     4.7960     3.6110 hc         1 3XG       0.018700
     50 H23        -10.2520     4.9460     0.9580 hc         1 3XG       0.018700
     51 H24         -9.2560     5.4930     2.3370 hc         1 3XG       0.018700
     52 H25         -7.8260     3.8400     1.3430 h1         1 3XG       0.014200
     53 H26         -9.2040     2.7860     0.9180 h1         1 3XG       0.014200
     54 C15         -6.2490     0.0030     2.4180 c3         1 3XG       0.001000
@<TRIPOS>BOND
     1     1     2 ar  
     2     1     9 ar  
     3     1    29 1   
     4     2     3 ar  
     5     2    30 1   
     6     3     7 ar  
     7     3    31 1   
     8     4     5 1   
     9     4    12 2   
    10     4    23 1   
    11     5    21 1   
    12     5    22 2   
    13     6    10 1   
    14     6    24 1   
    15     6    34 1   
    16     6    35 1   
    17     7     8 ar  
    18     7    36 1   
    19     8     9 ar  
    20     8    23 1   
    21     9    12 1   
    22    10    37 1   
    23    10    38 1   
    24    10    54 1   
    25    11    19 1   
    26    11    20 2   
    27    11    21 1   
    28    12    20 1   
    29    13    14 2   
    30    14    15 1   
    31    14    18 1   
    32    15    16 1   
    33    16    17 1   
    34    16    39 1   
    35    16    40 1   
    36    17    41 1   
    37    17    42 1   
    38    17    43 1   
    39    18    19 1   
    40    18    44 1   
    41    18    45 1   
    42    21    54 1   
    43    24    25 1   
    44    24    28 1   
    45    25    26 1   
    46    25    46 1   
    47    25    47 1   
    48    26    27 1   
    49    26    48 1   
    50    26    49 1   
    51    27    28 1   
    52    27    50 1   
    53    27    51 1   
    54    28    52 1   
    55    28    53 1   
    56    32    54 1   
    57    33    54 1   
@<TRIPOS>SUBSTRUCTURE
     1 3XG         1 TEMP              0 ****  ****    0 ROOT
