@<TRIPOS>MOLECULE
3XJ
   50    52     1     0     0
SMALL
bcc


@<TRIPOS>ATOM
      1 O3           0.0000     0.0000     0.0000 o          1 3XJ      -0.878300
      2 C4           5.7580     0.4970    -7.3190 ca         1 3XJ      -0.072000
      3 C5           6.4490     0.3980    -8.5110 ca         1 3XJ      -0.049600
      4 O4           9.2690    -2.5300    -9.5440 os         1 3XJ      -0.391600
      5 C7           3.4730    -0.0020    -3.6830 ca         1 3XJ      -0.205600
      6 C8           4.1710    -0.0020    -2.4750 ca         1 3XJ      -0.092000
      7 C9           3.4820    -0.0000    -1.2810 ca         1 3XJ      -0.088000
      8 O5           8.2700    -3.4710   -12.9410 oh         1 3XJ      -0.582800
      9 C10          2.0860    -0.0000    -1.2810 ca         1 3XJ      -0.068600
     10 O6          10.1460    -1.3650   -13.4220 oh         1 3XJ      -0.579800
     11 C11          1.3890    -0.0010    -2.4900 ca         1 3XJ      -0.088000
     12 C12          2.0780     0.0040    -3.6830 ca         1 3XJ      -0.092000
     13 C13          1.3470     0.0000     0.0000 c          1 3XJ       0.967200
     14 O7          11.5380    -1.6240   -11.0070 oh         1 3XJ      -0.557800
     15 C14          9.5480    -1.1400    -9.7210 c3         1 3XJ       0.361900
     16 C15          8.4340    -3.0910   -10.5590 c3         1 3XJ       0.160100
     17 O2           1.9540     0.0000     1.0520 o          1 3XJ      -0.878300
     18 O1           3.6050     0.0010    -6.0180 o          1 3XJ      -0.658100
     19 N            5.5610    -0.0080    -4.9660 ns         1 3XJ      -0.055100
     20 C3           6.2600    -0.1080    -6.1740 ca         1 3XJ      -0.090400
     21 C2           7.4560    -0.8110    -6.2290 ca         1 3XJ      -0.097000
     22 C1           8.1470    -0.9090    -7.4210 ca         1 3XJ      -0.167000
     23 C            7.6430    -0.3090    -8.5660 ca         1 3XJ       0.122100
     24 O            8.3220    -0.4060    -9.7400 os         1 3XJ      -0.326900
     25 C18         10.2880    -0.9340   -11.0450 c3         1 3XJ       0.143100
     26 C17          9.4320    -1.4860   -12.1890 c3         1 3XJ       0.160100
     27 C16          9.1280    -2.9640   -11.9170 c3         1 3XJ       0.148100
     28 C19          8.1800    -4.5690   -10.2530 c3         1 3XJ       0.224400
     29 H8           5.2540    -0.0020    -2.4750 ha         1 3XJ       0.094500
     30 H9           4.0240    -0.0000    -0.3430 ha         1 3XJ       0.129000
     31 H14          9.7530    -0.6870   -13.9470 ho         1 3XJ       0.389000
     32 H10          0.3050     0.0010    -2.4910 ha         1 3XJ       0.129000
     33 H11          1.5360     0.0030    -4.6210 ha         1 3XJ       0.094500
     34 H15         12.2360    -1.0030   -10.8730 ho         1 3XJ       0.387000
     35 H           10.1700    -0.7920    -8.9050 h2         1 3XJ       0.038700
     36 H18          7.1750    -5.5800    -8.9120 ho         1 3XJ       0.385000
     37 H12          7.4920    -2.5560   -10.5860 h1         1 3XJ       0.047700
     38 H7           6.0620     0.0960    -4.1050 hn         1 3XJ       0.180500
     39 H5           7.8500    -1.2810    -5.3360 ha         1 3XJ       0.107000
     40 H4           9.0790    -1.4590    -7.4640 ha         1 3XJ       0.129000
     41 H3          10.4580     0.1240   -11.2010 h1         1 3XJ       0.013700
     42 H2           8.5040    -0.9310   -12.2460 h1         1 3XJ       0.034700
     43 H1          10.0540    -3.5250   -11.9030 h1         1 3XJ       0.031700
     44 H16          9.1280    -5.0820   -10.1410 h1         1 3XJ      -0.005800
     45 H17          7.6220    -5.0150   -11.0670 h1         1 3XJ      -0.005800
     46 Cl           5.8250     1.1600    -9.9410 cl         1 3XJ      -0.030400
     47 H13          8.7660    -4.0260   -13.5200 ho         1 3XJ       0.394000
     48 O8           7.4300    -4.6820    -9.0410 oh         1 3XJ      -0.575800
     49 C6           4.2130    -0.0030    -4.9650 c          1 3XJ       0.604700
     50 H6           4.8550     1.0930    -7.2650 ha         1 3XJ       0.159000
@<TRIPOS>BOND
     1     1    13 1   
     2     2     3 ar  
     3     2    20 ar  
     4     2    50 1   
     5     3    23 ar  
     6     3    46 1   
     7     4    15 1   
     8     4    16 1   
     9     5     6 ar  
    10     5    12 ar  
    11     5    49 1   
    12     6     7 ar  
    13     6    29 1   
    14     7     9 ar  
    15     7    30 1   
    16     8    27 1   
    17     8    47 1   
    18     9    11 ar  
    19     9    13 1   
    20    10    26 1   
    21    10    31 1   
    22    11    12 ar  
    23    11    32 1   
    24    12    33 1   
    25    13    17 1   
    26    14    25 1   
    27    14    34 1   
    28    15    24 1   
    29    15    25 1   
    30    15    35 1   
    31    16    27 1   
    32    16    28 1   
    33    16    37 1   
    34    18    49 2   
    35    19    20 1   
    36    19    38 1   
    37    19    49 1   
    38    20    21 ar  
    39    21    22 ar  
    40    21    39 1   
    41    22    23 ar  
    42    22    40 1   
    43    23    24 1   
    44    25    26 1   
    45    25    41 1   
    46    26    27 1   
    47    26    42 1   
    48    27    43 1   
    49    28    44 1   
    50    28    45 1   
    51    28    48 1   
    52    36    48 1   
@<TRIPOS>SUBSTRUCTURE
     1 3XJ         1 TEMP              0 ****  ****    0 ROOT
