@<TRIPOS>MOLECULE
molecule
   38    41     1     0     0
SMALL
bcc


@<TRIPOS>ATOM
      1 C7           0.0000     0.0000     0.0000 cp         1 3XK      -0.066000
      2 C9           2.0590     0.0000     1.2220 ca         1 3XK       0.467300
      3 N1          -3.4020    -0.0150    -1.0830 nb         1 3XK      -0.718000
      4 C2          -3.4040    -0.0170    -2.3980 ca         1 3XK       0.476200
      5 N2          -2.0360    -0.0070     0.9770 na         1 3XK      -0.272000
      6 C10          1.3910     0.0000     0.0000 ca         1 3XK      -0.150300
      7 C4          -1.0350    -0.0060    -1.0450 cp         1 3XK      -0.209300
      8 N3           1.3810     0.0070     2.3680 nb         1 3XK      -0.632000
      9 N5           4.6260    -0.0160     1.2780 n1         1 3XK      -0.346800
     10 C6          -0.6810    -0.0020     1.2320 ca         1 3XK      -0.103500
     11 C19          3.4910    -0.0000     1.2460 cg         1 3XK       0.147800
     12 C8           0.0680     0.0020     2.4080 ca         1 3XK       0.408200
     13 C3          -2.2740    -0.0100    -0.3810 ca         1 3XK       0.511800
     14 C5          -1.0000    -0.0070    -2.4370 ca         1 3XK      -0.026000
     15 C1          -2.2130    -0.0130    -3.1250 cp         1 3XK      -0.186300
     16 C11         -2.2360    -0.0160    -4.6090 cp         1 3XK      -0.024000
     17 C16         -3.4520    -0.0210    -5.2880 ca         1 3XK      -0.131000
     18 C15         -3.4670    -0.0240    -6.6740 ca         1 3XK       0.042600
     19 N4          -4.6870    -0.0290    -7.3600 ns         1 3XK      -0.470100
     20 C17         -4.8090     0.6400    -8.5240 c          1 3XK       0.644100
     21 O1          -3.8400     1.1770    -9.0190 o          1 3XK      -0.589100
     22 C18         -6.1480     0.7210    -9.2110 c3         1 3XK      -0.167100
     23 C14         -2.2720    -0.0200    -7.3820 ca         1 3XK      -0.123000
     24 C13         -1.0650    -0.0150    -6.7070 ca         1 3XK      -0.114000
     25 C12         -1.0420    -0.0070    -5.3260 ca         1 3XK      -0.128000
     26 H1          -4.3440    -0.0210    -2.9370 h4         1 3XK       0.034100
     27 H2          -2.7630    -0.0090     1.6650 hn         1 3XK       0.314700
     28 H3           1.9330    -0.0050    -0.9380 ha         1 3XK       0.152000
     29 H4          -0.4450     0.0080     3.3620 h4         1 3XK       0.032100
     30 H5          -0.0480    -0.0040    -2.9550 ha         1 3XK       0.148000
     31 H6          -4.3820    -0.0480    -4.7330 ha         1 3XK       0.135000
     32 H7          -5.2920    -0.8240    -7.2990 hn         1 3XK       0.314500
     33 H8          -6.5500    -0.2770    -9.3380 hc         1 3XK       0.064700
     34 H9          -6.8280     1.3100    -8.6070 hc         1 3XK       0.064700
     35 H10         -6.0290     1.1890   -10.1810 hc         1 3XK       0.064700
     36 H11         -2.2840    -0.0220    -8.4650 ha         1 3XK       0.166000
     37 H12         -0.1340    -0.0110    -7.2620 ha         1 3XK       0.138000
     38 H13         -0.0950     0.0030    -4.8010 ha         1 3XK       0.131000
@<TRIPOS>BOND
     1     9    11 3
     2    11     2 1
     3     2     6 ar
     4     2     8 ar
     5     6     1 ar
     6     8    12 ar
     7     1    10 ar
     8     1     7 1
     9    12    10 ar
    10    25    24 ar
    11    25    16 ar
    12    24    23 ar
    13    10     5 1
    14    14     7 ar
    15    14    15 ar
    16     7    13 ar
    17    23    18 ar
    18    16    15 1
    19    16    17 ar
    20    15     4 ar
    21     5    13 1
    22    13     3 ar
    23     4     3 ar
    24    17    18 ar
    25    18    19 1
    26    19    20 1
    27    20    21 2
    28    20    22 1
    29     4    26 1
    30     5    27 1
    31     6    28 1
    32    12    29 1
    33    14    30 1
    34    17    31 1
    35    19    32 1
    36    22    33 1
    37    22    34 1
    38    22    35 1
    39    23    36 1
    40    24    37 1
    41    25    38 1
@<TRIPOS>SUBSTRUCTURE
     1 3XK         1 TEMP              0 ****  ****    0 ROOT
