@<TRIPOS>MOLECULE
3XK
   38    41     1     0     0
SMALL
bcc


@<TRIPOS>ATOM
      1 C7           0.0000     0.0000     0.0000 cp         1 3XK      -0.066000
      2 C9           2.0590     0.0000     1.2220 ca         1 3XK       0.461300
      3 N1          -3.4020    -0.0150    -1.0830 nb         1 3XK      -0.584000
      4 C2          -3.4040    -0.0170    -2.3980 ca         1 3XK       0.438200
      5 N2          -2.0360    -0.0070     0.9770 na         1 3XK       0.266000
      6 C10          1.3910     0.0000     0.0000 ca         1 3XK      -0.114300
      7 C4          -1.0350    -0.0060    -1.0450 cp         1 3XK      -0.201300
      8 N3           1.3810     0.0070     2.3680 nb         1 3XK      -0.522000
      9 N5           4.6260    -0.0160     1.2780 n1         1 3XK      -0.370800
     10 C6          -0.6810    -0.0020     1.2320 ca         1 3XK      -0.290500
     11 C19          3.4910    -0.0000     1.2460 cg         1 3XK       0.126800
     12 C8           0.0680     0.0020     2.4080 ca         1 3XK       0.397200
     13 C3          -2.2740    -0.0100    -0.3810 ca         1 3XK       0.275800
     14 C5          -1.0000    -0.0070    -2.4370 ca         1 3XK      -0.001000
     15 C1          -2.2130    -0.0130    -3.1250 cp         1 3XK      -0.175300
     16 C11         -2.2360    -0.0160    -4.6090 cp         1 3XK      -0.018000
     17 C16         -3.4520    -0.0210    -5.2880 ca         1 3XK      -0.107000
     18 C15         -3.4670    -0.0240    -6.6740 ca         1 3XK      -0.091400
     19 N4          -4.6870    -0.0290    -7.3600 ns         1 3XK      -0.057100
     20 C17         -4.8090     0.6400    -8.5240 c          1 3XK       0.557100
     21 O1          -3.8400     1.1770    -9.0190 o          1 3XK      -0.626100
     22 C18         -6.1480     0.7210    -9.2110 c3         1 3XK      -0.065100
     23 C14         -2.2720    -0.0200    -7.3820 ca         1 3XK      -0.101000
     24 C13         -1.0650    -0.0150    -6.7070 ca         1 3XK      -0.082000
     25 C12         -1.0420    -0.0070    -5.3260 ca         1 3XK      -0.105000
     26 H1          -4.3440    -0.0210    -2.9370 h4         1 3XK      -0.010900
     27 H2          -2.7630    -0.0090     1.6650 hn         1 3XK       0.127700
     28 H3           1.9330    -0.0050    -0.9380 ha         1 3XK       0.121000
     29 H4          -0.4450     0.0080     3.3620 h4         1 3XK      -0.015900
     30 H5          -0.0480    -0.0040    -2.9550 ha         1 3XK       0.119000
     31 H6          -4.3820    -0.0480    -4.7330 ha         1 3XK       0.115000
     32 H7          -5.2920    -0.8240    -7.2990 hn         1 3XK       0.163500
     33 H8          -6.5500    -0.2770    -9.3380 hc         1 3XK       0.025033
     34 H9          -6.8280     1.3100    -8.6070 hc         1 3XK       0.025033
     35 H10         -6.0290     1.1890   -10.1810 hc         1 3XK       0.025033
     36 H11         -2.2840    -0.0220    -8.4650 ha         1 3XK       0.145000
     37 H12         -0.1340    -0.0110    -7.2620 ha         1 3XK       0.107000
     38 H13         -0.0950     0.0030    -4.8010 ha         1 3XK       0.109000
@<TRIPOS>BOND
     1     1     6 ar  
     2     1     7 1   
     3     1    10 ar  
     4     2     6 ar  
     5     2     8 ar  
     6     2    11 1   
     7     3     4 ar  
     8     3    13 ar  
     9     4    15 ar  
    10     4    26 1   
    11     5    10 1   
    12     5    13 1   
    13     5    27 1   
    14     6    28 1   
    15     7    13 ar  
    16     7    14 ar  
    17     8    12 ar  
    18     9    11 3   
    19    10    12 ar  
    20    12    29 1   
    21    14    15 ar  
    22    14    30 1   
    23    15    16 1   
    24    16    17 ar  
    25    16    25 ar  
    26    17    18 ar  
    27    17    31 1   
    28    18    19 1   
    29    18    23 ar  
    30    19    20 1   
    31    19    32 1   
    32    20    21 2   
    33    20    22 1   
    34    22    33 1   
    35    22    34 1   
    36    22    35 1   
    37    23    24 ar  
    38    23    36 1   
    39    24    25 ar  
    40    24    37 1   
    41    25    38 1   
@<TRIPOS>SUBSTRUCTURE
     1 3XK         1 TEMP              0 ****  ****    0 ROOT
