@<TRIPOS>MOLECULE
3XL
   32    35     1     0     0
SMALL
bcc


@<TRIPOS>ATOM
      1 N4          -1.2590     0.0170    -2.2380 n1         1 3XL      -0.372800
      2 C17         -0.7090     0.0010    -1.2440 cg         1 3XL       0.128800
      3 C9           0.0000     0.0000     0.0000 ca         1 3XL       0.462300
      4 N3           1.3310     0.0000     0.0000 nb         1 3XL      -0.525000
      5 C8           2.0340     0.0000     1.1100 ca         1 3XL       0.399200
      6 C6           1.4030    -0.0010     2.3530 ca         1 3XL      -0.292500
      7 N2           1.8750    -0.0030     3.6490 na         1 3XL       0.264000
      8 C3           0.8270    -0.0030     4.5460 ca         1 3XL       0.277800
      9 N1           0.7970    -0.0040     5.8740 nb         1 3XL      -0.589000
     10 C2          -0.3330    -0.0040     6.5460 ca         1 3XL       0.459200
     11 C10         -0.7120     0.0040     1.1970 ca         1 3XL      -0.118300
     12 C7          -0.0030    -0.0020     2.3950 cp         1 3XL      -0.065000
     13 C4          -0.3760    -0.0030     3.8170 cp         1 3XL      -0.205300
     14 C5          -1.5910     0.0020     4.4970 ca         1 3XL       0.005000
     15 C1          -1.5660    -0.0050     5.8920 cp         1 3XL      -0.166300
     16 C11         -2.8300    -0.0010     6.6680 cp         1 3XL      -0.061000
     17 C16         -3.8250     0.9290     6.3780 ca         1 3XL      -0.067000
     18 C15         -5.0000     0.9300     7.1030 ca         1 3XL      -0.124000
     19 C14         -5.1930     0.0080     8.1170 ca         1 3XL      -0.067000
     20 C13         -4.2100    -0.9190     8.4130 ca         1 3XL      -0.169000
     21 C12         -3.0300    -0.9330     7.6900 ca         1 3XL       0.146100
     22 O1          -2.0630    -1.8450     7.9790 oh         1 3XL      -0.488100
     23 H1           3.1160     0.0000     1.0650 h4         1 3XL      -0.015900
     24 H2           2.8370    -0.0040     3.9240 hn         1 3XL       0.126700
     25 H3          -0.3180    -0.0050     7.6290 h4         1 3XL      -0.015900
     26 H4          -1.7220     0.3950     1.2260 ha         1 3XL       0.122000
     27 H5          -2.5220     0.0020     3.9430 ha         1 3XL       0.115000
     28 H6          -3.6770     1.6510     5.5840 ha         1 3XL       0.109000
     29 H7          -5.7750     1.6520     6.8780 ha         1 3XL       0.107000
     30 H8          -6.1160     0.0110     8.6840 ha         1 3XL       0.104000
     31 H9          -4.3660    -1.6380     9.2080 ha         1 3XL       0.113000
     32 H10         -1.8590    -1.8040     8.8990 ho         1 3XL       0.403000
@<TRIPOS>BOND
     1     1     2 3   
     2     2     3 1   
     3     3     4 ar  
     4     3    11 ar  
     5     4     5 ar  
     6     5     6 ar  
     7     5    23 1   
     8     6     7 1   
     9     6    12 ar  
    10     7     8 1   
    11     7    24 1   
    12     8     9 ar  
    13     8    13 ar  
    14     9    10 ar  
    15    10    15 ar  
    16    10    25 1   
    17    11    12 ar  
    18    11    26 1   
    19    12    13 1   
    20    13    14 ar  
    21    14    15 ar  
    22    14    27 1   
    23    15    16 1   
    24    16    17 ar  
    25    16    21 ar  
    26    17    18 ar  
    27    17    28 1   
    28    18    19 ar  
    29    18    29 1   
    30    19    20 ar  
    31    19    30 1   
    32    20    21 ar  
    33    20    31 1   
    34    21    22 1   
    35    22    32 1   
@<TRIPOS>SUBSTRUCTURE
     1 3XL         1 TEMP              0 ****  ****    0 ROOT
