@<TRIPOS>MOLECULE
molecule
   41    42     1     0     0
SMALL
bcc


@<TRIPOS>ATOM
      1 CAA          0.0000     0.0000     0.0000 ca         1 3XM       0.114100
      2 CAB          1.3880     0.0000     0.0000 ca         1 3XM      -0.154500
      3 CAC          2.0780     0.0000     1.1940 ca         1 3XM      -0.096000
      4 CAD          1.3820    -0.0000     2.4010 ca         1 3XM      -0.060800
      5 CAE         -0.0120    -0.0010     2.3970 ca         1 3XM      -0.096000
      6 CAF         -0.6970     0.0050     1.2000 ca         1 3XM      -0.154500
      7 CAG          2.1220    -0.0010     3.6880 cc         1 3XM      -0.184200
      8 CAH          2.8910     1.0710     4.0350 cd         1 3XM       0.054600
      9 NAI          3.5770     1.0960     5.2030 ns         1 3XM      -0.406100
     10 CAJ          3.5270     0.0660     6.0680 c          1 3XM       0.701700
     11 CAK          2.7450    -1.0800     5.7660 cd         1 3XM      -0.360400
     12 CAL          2.0270    -1.1090     4.5580 cc         1 3XM       0.283100
     13 OAM          1.2670    -2.1770     4.2350 oh         1 3XM      -0.490100
     14 OAN         -0.6780    -0.0010    -1.1770 oh         1 3XM      -0.522100
     15 OAO          4.1540     0.1170     7.1110 o          1 3XM      -0.645500
     16 CAP          2.6850    -2.1690     6.6670 c          1 3XM       0.594300
     17 CAQ          3.5590    -2.1800     7.8950 c3         1 3XM      -0.163400
     18 OAR          1.9300    -3.0950     6.4510 o          1 3XM      -0.540100
     19 CAS          3.3010    -3.4610     8.6920 c3         1 3XM      -0.077400
     20 CAT          4.1880    -3.4720     9.9390 c3         1 3XM      -0.082400
     21 CAU          3.9310    -4.7520    10.7360 c3         1 3XM      -0.083400
     22 CAV          4.8180    -4.7640    11.9830 c3         1 3XM      -0.092100
     23 HAB          1.9300    -0.0020    -0.9380 ha         1 3XM       0.144500
     24 HAC          3.1610     0.0000     1.1940 ha         1 3XM       0.140500
     25 HAE         -0.5570     0.0010     3.3330 ha         1 3XM       0.140500
     26 HAF         -1.7800     0.0040     1.1970 ha         1 3XM       0.144500
     27 HAH          2.9550     1.9190     3.3630 h4         1 3XM       0.166000
     28 HNAI         4.1320     1.8980     5.4280 hn         1 3XM       0.342500
     29 HOAM         1.7910    -2.8060     3.7680 ho         1 3XM       0.448000
     30 HOAN        -0.8350    -0.8900    -1.4490 ho         1 3XM       0.423000
     31 H1AQ         4.6000    -2.1430     7.5980 hc         1 3XM       0.079200
     32 H2AQ         3.3280    -1.3190     8.5100 hc         1 3XM       0.079200
     33 H1AS         2.2600    -3.4980     8.9890 hc         1 3XM       0.049700
     34 H2AS         3.5320    -4.3220     8.0770 hc         1 3XM       0.049700
     35 H1AT         3.9570    -2.6100    10.5540 hc         1 3XM       0.040200
     36 H2AT         5.2290    -3.4340     9.6420 hc         1 3XM       0.040200
     37 H1AU         2.8900    -4.7890    11.0330 hc         1 3XM       0.040200
     38 H2AU         4.1620    -5.6130    10.1210 hc         1 3XM       0.040200
     39 H1AV         4.6360    -5.6700    12.5470 hc         1 3XM       0.031700
     40 H2AV         5.8590    -4.7260    11.6870 hc         1 3XM       0.031700
     41 H3AV         4.5860    -3.9030    12.5990 hc         1 3XM       0.031700
@<TRIPOS>BOND
     1     9     8 1
     2     9    10 1
     3    15    10 2
     4     8     7 2
     5    10    11 1
     6     3     2 ar
     7     3     4 ar
     8     2     1 ar
     9     7     4 1
    10     7    12 1
    11    11    12 2
    12    11    16 1
    13    22    21 1
    14    17    16 1
    15    17    19 1
    16     4     5 ar
    17    12    13 1
    18    16    18 2
    19     1    14 1
    20     1     6 ar
    21    20    19 1
    22    20    21 1
    23     5     6 ar
    24     2    23 1
    25     3    24 1
    26     5    25 1
    27     6    26 1
    28     8    27 1
    29     9    28 1
    30    13    29 1
    31    14    30 1
    32    17    31 1
    33    17    32 1
    34    19    33 1
    35    19    34 1
    36    20    35 1
    37    20    36 1
    38    21    37 1
    39    21    38 1
    40    22    39 1
    41    22    40 1
    42    22    41 1
@<TRIPOS>SUBSTRUCTURE
     1 3XM         1 TEMP              0 ****  ****    0 ROOT
