@<TRIPOS>MOLECULE
molecule
   50    53     1     0     0
SMALL
bcc


@<TRIPOS>ATOM
      1 O3           0.0000     0.0000     0.0000 oh         1 3XN      -0.594800
      2 C4           3.4700     1.2870    -0.6370 c3         1 3XN       0.146100
      3 C5           3.9870     2.5680    -1.2940 c3         1 3XN       0.151400
      4 O4           1.4070     1.1290     2.1400 oh         1 3XN      -0.573800
      5 C6           5.3460    -1.2690     0.8750 ca         1 3XN       0.142100
      6 C7           6.1320    -0.3600     1.5680 ca         1 3XN      -0.161000
      7 C8           7.4970    -0.5520     1.6530 ca         1 3XN      -0.103000
      8 C9           8.0820    -1.6550     1.0460 ca         1 3XN      -0.044200
      9 O5           4.0020    -1.0760     0.7870 os         1 3XN      -0.356900
     10 C10          7.2940    -2.5650     0.3530 ca         1 3XN      -0.103000
     11 O6          11.8470    -7.5460     2.8990 o          1 3XN      -0.213000
     12 C11          5.9290    -2.3710     0.2680 ca         1 3XN      -0.161000
     13 C12         10.4140    -1.0520     0.9840 cc         1 3XN      -0.091100
     14 C13         11.5950    -1.6480     1.2100 cd         1 3XN      -0.181200
     15 O7          13.5770    -6.3650     2.6510 o          1 3XN      -0.213000
     16 C14         11.3110    -3.0340     1.5910 ca         1 3XN      -0.115800
     17 C15          9.9110    -3.1670     1.5600 ca         1 3XN      -0.006200
     18 C18         11.5200    -5.3210     2.2530 ca         1 3XN      -0.182200
     19 C19         12.1060    -4.1270     1.9410 ca         1 3XN      -0.013000
     20 C17         10.1400    -5.4580     2.2220 ca         1 3XN      -0.069000
     21 C16          9.3350    -4.3920     1.8790 ca         1 3XN      -0.140000
     22 N            9.3950    -1.9440     1.1870 na         1 3XN       0.030500
     23 C            3.4690     0.0800     1.4350 c3         1 3XN       0.317900
     24 O            3.8790     1.2540     0.7320 os         1 3XN      -0.404600
     25 O1           5.4150     2.5430    -1.3290 oh         1 3XN      -0.603800
     26 C3           1.9410     1.2550    -0.7120 c3         1 3XN       0.115100
     27 O2           1.5300     1.2300    -2.0800 oh         1 3XN      -0.604800
     28 C2           1.4280     0.0000     0.0000 c3         1 3XN       0.128100
     29 C1           1.9400     0.0000     1.4440 c3         1 3XN       0.116100
     30 HO3         -0.3140    -0.8350    -0.3050 ho         1 3XN       0.407000
     31 H4           3.8730     0.4230    -1.1530 h1         1 3XN       0.072700
     32 H52          3.6550     3.4260    -0.7230 h1         1 3XN       0.038200
     33 H51          3.6030     2.6360    -2.3050 h1         1 3XN       0.038200
     34 HO4          1.0450     0.8490     2.9640 ho         1 3XN       0.409000
     35 H7           5.6760     0.5010     2.0410 ha         1 3XN       0.154000
     36 H8           8.1110     0.1580     2.1940 ha         1 3XN       0.147000
     37 H10          7.7490    -3.4260    -0.1210 ha         1 3XN       0.147000
     38 H11          5.3140    -3.0800    -0.2720 ha         1 3XN       0.154000
     39 H13         12.5740    -1.1900     1.1280 ha         1 3XN       0.165000
     40 H19         13.1780    -4.0070     2.0420 ha         1 3XN       0.166000
     41 H17          9.6900    -6.4120     2.4690 ha         1 3XN       0.165000
     42 H16          8.2580    -4.5090     1.8580 ha         1 3XN       0.148000
     43 H            3.8310     0.1270     2.4550 h2         1 3XN       0.087700
     44 HO1          5.7310     3.2850    -1.8160 ho         1 3XN       0.403000
     45 H3           1.5380     2.1350    -0.2250 h1         1 3XN       0.072700
     46 HO2          0.8040     1.8180    -2.2010 ho         1 3XN       0.415000
     47 H2           1.7950    -0.8810    -0.5130 h1         1 3XN       0.065700
     48 H1           1.6310    -0.9140     1.9360 h1         1 3XN       0.053700
     49 H12         10.2860    -0.0190     0.6840 h4         1 3XN       0.179000
     50 N1          12.3640    -6.4800     2.6220 no         1 3XN       0.299200
@<TRIPOS>BOND
     1    14    13 2
     2    14    16 1
     3    13    22 1
     4    16    19 ar
     5    16    17 ar
     6    22     8 1
     7    22    17 1
     8    19    18 ar
     9     7     8 ar
    10     7     6 ar
    11     8    10 ar
    12    17    21 ar
    13     6     5 ar
    14    10    12 ar
    15    15    50 1
    16     5    12 ar
    17     5     9 1
    18    18    50 1
    19    18    20 ar
    20     9    23 1
    21    21    20 ar
    22    23    29 1
    23    23    24 1
    24    50    11 1
    25    29     4 1
    26    29    28 1
    27    24     2 1
    28    28     1 1
    29    28    26 1
    30     2    26 1
    31     2     3 1
    32    26    27 1
    33     3    25 1
    34     1    30 1
    35     2    31 1
    36     3    32 1
    37     3    33 1
    38     4    34 1
    39     6    35 1
    40     7    36 1
    41    10    37 1
    42    12    38 1
    43    13    49 1
    44    14    39 1
    45    19    40 1
    46    20    41 1
    47    21    42 1
    48    23    43 1
    49    25    44 1
    50    26    45 1
    51    27    46 1
    52    28    47 1
    53    29    48 1
@<TRIPOS>SUBSTRUCTURE
     1 3XN         1 TEMP              0 ****  ****    0 ROOT
