@<TRIPOS>MOLECULE
molecule
   59    62     1     0     0
SMALL
bcc


@<TRIPOS>ATOM
      1 O3           0.0000     0.0000     0.0000 os         1 3XO      -0.404600
      2 C4           1.9800    -2.3790    -4.1040 ca         1 3XO      -0.137000
      3 C5           2.1680    -2.3230    -2.7370 ca         1 3XO       0.023400
      4 O4          -0.6900    -2.3610     2.7170 oh         1 3XO      -0.604800
      5 C6           1.2160    -0.2390    -6.8940 cc         1 3XO      -0.030200
      6 N1           0.5900    -0.6520    -9.3290 nh         1 3XO      -0.681400
      7 C7           0.9780     0.0830    -8.2380 cd         1 3XO       0.013800
      8 C8           1.3000     1.5040    -8.0400 c          1 3XO       0.489300
      9 N2          -1.0960    -1.8620   -11.1890 n3         1 3XO      -0.732600
     10 C9           1.5520     1.1650    -6.6180 c          1 3XO       0.481300
     11 O5           1.7860    -1.1900     3.5440 oh         1 3XO      -0.596800
     12 C10          0.4200    -0.0180   -10.6460 c3         1 3XO       0.239300
     13 O6           1.5070     1.1920     2.1020 oh         1 3XO      -0.574800
     14 C11         -0.9580    -0.4000   -11.1950 c3         1 3XO       0.143300
     15 C12         -1.0350    -2.4020    -9.8190 c3         1 3XO       0.143300
     16 C13          0.3400    -2.0970    -9.2170 c3         1 3XO       0.239300
     17 C14         -2.3320    -2.2770   -11.8650 c3         1 3XO       0.153100
     18 C15          1.4290     0.0000     0.0000 c3         1 3XO       0.317900
     19 O2           1.8950     1.7900    -5.6320 o          1 3XO      -0.490100
     20 O1           1.3420     2.5040    -8.7300 o          1 3XO      -0.482100
     21 C3           1.3460    -1.3320    -4.7610 ca         1 3XO       0.127600
     22 C2           0.9030    -0.2290    -4.0430 ca         1 3XO      -0.102000
     23 C1           1.0920    -0.1740    -2.6760 ca         1 3XO      -0.156000
     24 Cl           2.9640    -3.6290    -1.9160 cl         1 3XO      -0.097400
     25 C            1.7200    -1.2220    -2.0190 ca         1 3XO       0.125100
     26 O            1.9050    -1.1680    -0.6740 os         1 3XO      -0.347900
     27 C19          1.9380     0.0000     1.4440 c3         1 3XO       0.117100
     28 C18          1.3740    -1.2210     2.1760 c3         1 3XO       0.128100
     29 C17         -0.1550    -1.1890     2.0990 c3         1 3XO       0.114100
     30 C16         -0.5840    -1.1430     0.6300 c3         1 3XO       0.146100
     31 C20         -2.1090    -1.0490     0.5470 c3         1 3XO       0.151400
     32 H6           2.3580    -3.2230    -4.6690 ha         1 3XO       0.146000
     33 H20         -1.0250    -2.1410     3.5700 ho         1 3XO       0.413000
     34 H21          2.4040    -1.8840     3.7020 ho         1 3XO       0.406000
     35 H8           1.1910    -0.3700   -11.3210 h1         1 3XO       0.059450
     36 H9           0.4840     1.0590   -10.5420 h1         1 3XO       0.059450
     37 H22          2.2470     1.7600     2.2420 ho         1 3XO       0.409000
     38 H11         -1.0560    -0.0330   -12.2100 h1         1 3XO       0.045950
     39 H10         -1.7290     0.0370   -10.5710 h1         1 3XO       0.045950
     40 H12         -1.1870    -3.4740    -9.8470 h1         1 3XO       0.045950
     41 H13         -1.8050    -1.9380    -9.2140 h1         1 3XO       0.045950
     42 H15          1.1030    -2.6410    -9.7600 h1         1 3XO       0.059450
     43 H14          0.3510    -2.3870    -8.1730 h1         1 3XO       0.059450
     44 H25         -3.4560    -1.1700    -0.8680 ho         1 3XO       0.401000
     45 H18         -3.1870    -1.8740   -11.3360 h1         1 3XO       0.035367
     46 H17         -2.3290    -1.9060   -12.8830 h1         1 3XO       0.035367
     47 H16         -2.3920    -3.3590   -11.8760 h1         1 3XO       0.035367
     48 H            1.7880     0.8870    -0.5080 h2         1 3XO       0.090700
     49 H7           1.0150    -2.2720    -6.5960 hn         1 3XO       0.451800
     50 H5           0.4100     0.5890    -4.5550 ha         1 3XO       0.156000
     51 H4           0.7440     0.6860    -2.1160 ha         1 3XO       0.164000
     52 H3           3.0210    -0.0480     1.4440 h1         1 3XO       0.054700
     53 H2           1.7390    -2.1250     1.7030 h1         1 3XO       0.069700
     54 H1          -0.5220    -0.3060     2.6090 h1         1 3XO       0.070700
     55 H19         -0.2450    -2.0410     0.1290 h1         1 3XO       0.074700
     56 H23         -2.5520    -1.8680     1.1000 h1         1 3XO       0.036700
     57 H24         -2.4370    -0.1070     0.9710 h1         1 3XO       0.036700
     58 O7          -2.5150    -1.1220    -0.8220 oh         1 3XO      -0.601800
     59 N            1.1550    -1.3890    -6.1460 nu         1 3XO      -0.622400
@<TRIPOS>BOND
     1     9    17 1
     2     9    14 1
     3     9    15 1
     4    12    14 1
     5    12     6 1
     6    16    15 1
     7    16     6 1
     8     6     7 1
     9     7     5 2
    10     7     8 1
    11    59     5 1
    12    59    21 1
    13     5    10 1
    14     8    20 2
    15     8    10 1
    16    22    21 ar
    17    22    23 ar
    18    21     2 ar
    19    10    19 2
    20    23    25 ar
    21     2     3 ar
    22    25     3 ar
    23    25    26 1
    24     3    24 1
    25    18    26 1
    26    18     1 1
    27    18    27 1
    28     1    30 1
    29    13    27 1
    30    27    28 1
    31    30    31 1
    32    30    29 1
    33    58    31 1
    34    28    29 1
    35    28    11 1
    36    29     4 1
    37     2    32 1
    38     4    33 1
    39    11    34 1
    40    12    35 1
    41    12    36 1
    42    13    37 1
    43    14    38 1
    44    14    39 1
    45    15    40 1
    46    15    41 1
    47    16    42 1
    48    16    43 1
    49    58    44 1
    50    17    45 1
    51    17    46 1
    52    17    47 1
    53    18    48 1
    54    59    49 1
    55    22    50 1
    56    23    51 1
    57    27    52 1
    58    28    53 1
    59    29    54 1
    60    30    55 1
    61    31    56 1
    62    31    57 1
@<TRIPOS>SUBSTRUCTURE
     1 3XO         1 TEMP              0 ****  ****    0 ROOT
