@<TRIPOS>MOLECULE
molecule
   67    66     1     0     0
SMALL
bcc


@<TRIPOS>ATOM
      1 C18          0.0000     0.0000     0.0000 c3         1 3XQ      -0.092100
      2 C10          8.1630     0.0010     5.7670 c3         1 3XQ      -0.082400
      3 C9           9.6930     0.0010     5.7660 c3         1 3XQ      -0.082400
      4 C17          1.5290     0.0000     0.0000 c3         1 3XQ      -0.084400
      5 C11          7.6520     0.0010     4.3250 c3         1 3XQ      -0.081400
      6 C8          10.2030     0.0020     7.2090 c3         1 3XQ      -0.082400
      7 C24         22.0610     0.1300    13.9530 c3         1 3XQ       0.131400
      8 C16          2.0400     0.0000     1.4420 c3         1 3XQ      -0.081400
      9 C12          6.1210     0.0010     4.3250 c3         1 3XQ      -0.082400
     10 C7          11.7330     0.0020     7.2080 c3         1 3XQ      -0.081400
     11 C15          3.5710     0.0000     1.4410 c3         1 3XQ      -0.082400
     12 C13          5.6100    -0.0000     2.8830 c3         1 3XQ      -0.082400
     13 C6          12.2430     0.0020     8.6500 c3         1 3XQ      -0.082400
     14 C14          4.0810     0.0010     2.8830 c3         1 3XQ      -0.081400
     15 C5          13.7730     0.0020     8.6490 c3         1 3XQ      -0.080400
     16 C4          14.2840     0.0020    10.0920 c3         1 3XQ      -0.084400
     17 C3          15.8140     0.0020    10.0910 c3         1 3XQ      -0.072400
     18 C2          16.3240     0.0030    11.5330 c3         1 3XQ      -0.125400
     19 C21         19.9530     0.0030    12.6180 c3         1 3XQ       0.136400
     20 C1          17.8310     0.0020    11.5330 c          1 3XQ       0.632100
     21 C22         20.5380     0.0030    14.0330 c3         1 3XQ       0.149100
     22 O19         18.4350     0.0030    10.4870 o          1 3XQ      -0.551000
     23 O23         20.1950    -1.2170    14.6910 oh         1 3XQ      -0.591800
     24 O20         18.5030     0.0030    12.6950 os         1 3XQ      -0.428900
     25 H1          -0.3610    -0.8850     0.5110 hc         1 3XQ       0.032367
     26 H2          -0.3610     0.8850     0.5110 hc         1 3XQ       0.032367
     27 H3          -0.3610    -0.0000    -1.0210 hc         1 3XQ       0.032367
     28 H4           7.8020     0.8850     6.2780 hc         1 3XQ       0.040700
     29 H5           7.8020    -0.8840     6.2780 hc         1 3XQ       0.040700
     30 H6          10.0540    -0.8840     5.2560 hc         1 3XQ       0.041700
     31 H7          10.0530     0.8860     5.2550 hc         1 3XQ       0.041700
     32 H8           1.8900    -0.8840    -0.5110 hc         1 3XQ       0.039700
     33 H9           1.8900     0.8840    -0.5110 hc         1 3XQ       0.039700
     34 H10          8.0130    -0.8830     3.8150 hc         1 3XQ       0.040700
     35 H11          8.0130     0.8850     3.8150 hc         1 3XQ       0.040700
     36 H12          9.8420    -0.8820     7.7200 hc         1 3XQ       0.040700
     37 H13          9.8420     0.8870     7.7190 hc         1 3XQ       0.040700
     38 H14         22.3210     1.0100    13.3780 h1         1 3XQ       0.032700
     39 H15         22.4720    -0.7500    13.4730 h1         1 3XQ       0.032700
     40 H16          1.6800    -0.8850     1.9520 hc         1 3XQ       0.040700
     41 H17          1.6800     0.8840     1.9530 hc         1 3XQ       0.040700
     42 H18          5.7600     0.8860     4.8350 hc         1 3XQ       0.040700
     43 H19          5.7600    -0.8830     4.8360 hc         1 3XQ       0.040700
     44 H20         12.0940    -0.8820     6.6970 hc         1 3XQ       0.041700
     45 H21         12.0940     0.8870     6.6970 hc         1 3XQ       0.041700
     46 H22          3.9310     0.8850     0.9300 hc         1 3XQ       0.040700
     47 H23          3.9320    -0.8850     0.9300 hc         1 3XQ       0.040700
     48 H24          5.9720     0.8840     2.3710 hc         1 3XQ       0.040700
     49 H25          5.9710    -0.8850     2.3730 hc         1 3XQ       0.040700
     50 H26         11.8830    -0.8830     9.1610 hc         1 3XQ       0.040700
     51 H27         11.8820     0.8860     9.1610 hc         1 3XQ       0.040700
     52 H28          3.7200     0.8860     3.3930 hc         1 3XQ       0.040700
     53 H29          3.7190    -0.8830     3.3950 hc         1 3XQ       0.040700
     54 H30         14.1340    -0.8820     8.1380 hc         1 3XQ       0.044200
     55 H31         14.1340     0.8870     8.1390 hc         1 3XQ       0.044200
     56 H32         13.9230     0.8860    10.6030 hc         1 3XQ       0.041200
     57 H33         13.9230    -0.8830    10.6020 hc         1 3XQ       0.041200
     58 H34         16.1750     0.8860     9.5800 hc         1 3XQ       0.058700
     59 H35         16.1750    -0.8830     9.5810 hc         1 3XQ       0.058700
     60 H36         15.9640     0.8880    12.0440 hc         1 3XQ       0.072200
     61 H37         15.9630    -0.8810    12.0450 hc         1 3XQ       0.072200
     62 H38         20.2870    -0.8810    12.0890 h1         1 3XQ       0.059200
     63 H39         20.2860     0.8880    12.0890 h1         1 3XQ       0.059200
     64 H40         20.1350     0.8400    14.5900 h1         1 3XQ       0.052700
     65 H41         23.5260     0.4070    15.2220 ho         1 3XQ       0.407000
     66 H42         19.7020    -1.0260    15.4710 ho         1 3XQ       0.412000
     67 O25         22.5980     0.2470    15.2730 oh         1 3XQ      -0.605800
@<TRIPOS>BOND
     1    23    21 1   
     2     7    21 1   
     3     7    67 1   
     4    21    19 1   
     5    19    24 1   
     6    24    20 1   
     7    20    22 2   
     8    20    18 1   
     9    18    17 1   
    10    17    16 1   
    11    16    15 1   
    12    15    13 1   
    13    13    10 1   
    14    10     6 1   
    15     6     3 1   
    16     3     2 1   
    17     1     4 1   
    18     2     5 1   
    19     4     8 1   
    20     8    11 1   
    21     5     9 1   
    22    12     9 1   
    23    12    14 1   
    24    11    14 1   
    25     1    25 1   
    26     1    26 1   
    27     1    27 1   
    28     2    28 1   
    29     2    29 1   
    30     3    30 1   
    31     3    31 1   
    32     4    32 1   
    33     4    33 1   
    34     5    34 1   
    35     5    35 1   
    36     6    36 1   
    37     6    37 1   
    38     7    38 1   
    39     7    39 1   
    40     8    40 1   
    41     8    41 1   
    42     9    42 1   
    43     9    43 1   
    44    10    44 1   
    45    10    45 1   
    46    11    46 1   
    47    11    47 1   
    48    12    48 1   
    49    12    49 1   
    50    13    50 1   
    51    13    51 1   
    52    14    52 1   
    53    14    53 1   
    54    15    54 1   
    55    15    55 1   
    56    16    56 1   
    57    16    57 1   
    58    17    58 1   
    59    17    59 1   
    60    18    60 1   
    61    18    61 1   
    62    19    62 1   
    63    19    63 1   
    64    21    64 1   
    65    67    65 1   
    66    23    66 1   
@<TRIPOS>SUBSTRUCTURE
     1 3XQ         1 TEMP              0 ****  ****    0 ROOT
