@<TRIPOS>MOLECULE
molecule
   29    29     1     0     0
SMALL
bcc


@<TRIPOS>ATOM
      1 CAA          0.0000     0.0000     0.0000 c3         1 3XR      -0.168100
      2 CAJ          1.5070     0.0000     0.0000 c          1 3XR       0.661100
      3 OAB          2.1130     0.0000     1.0500 o          1 3XR      -0.573100
      4 NAH          2.1800    -0.0020    -1.1680 ns         1 3XR      -0.608900
      5 CAO          3.6450    -0.0020    -1.1680 c3         1 3XR       0.290900
      6 NAI          4.1330    -1.3400    -1.5250 ny         1 3XR      -0.753000
      7 CAG          5.5990    -1.3710    -1.4540 c3         1 3XR       0.116800
      8 CAN          6.1840    -0.4020    -2.4840 c3         1 3XR      -0.202700
      9 CAK          7.6880    -0.4350    -2.4080 c          1 3XR       0.895600
     10 OAD          8.3020     0.5730    -2.1440 o          1 3XR      -0.792300
     11 OAC          8.3470    -1.5820    -2.6330 o          1 3XR      -0.792300
     12 CAL          5.6870     1.0160    -2.1830 c3         1 3XR       0.143100
     13 OAE          6.1620     1.4260    -0.9000 oh         1 3XR      -0.577800
     14 CAM          4.1550     1.0200    -2.1860 c3         1 3XR       0.098100
     15 OAF          3.6810     2.3210    -1.8350 oh         1 3XR      -0.575800
     16 H1          -0.3610    -0.8080    -0.6250 hc         1 3XR       0.072033
     17 H2          -0.3610     0.9450    -0.3870 hc         1 3XR       0.072033
     18 H3          -0.3610    -0.1380     1.0120 hc         1 3XR       0.072033
     19 H4           1.6800    -0.0260    -2.0340 hn         1 3XR       0.323500
     20 H5           4.0100     0.2610    -0.1830 hx         1 3XR       0.174700
     21 H6           3.7570    -2.0120    -0.8860 hn         1 3XR       0.430300
     22 H8           5.9170    -1.0760    -0.4610 hx         1 3XR       0.122700
     23 H9           5.9480    -2.3750    -1.6670 hx         1 3XR       0.122700
     24 H10          5.8600    -0.6930    -3.4760 hc         1 3XR       0.056700
     25 H12          6.0510     1.6950    -2.9440 h1         1 3XR       0.080700
     26 H13          6.4680     2.3160    -0.9490 ho         1 3XR       0.430000
     27 H14          3.7970     0.7540    -3.1730 h1         1 3XR       0.032700
     28 H15          3.4770     2.8030    -2.6190 ho         1 3XR       0.418000
     29 H7           3.8420    -1.5610    -2.4570 hn         1 3XR       0.430300
@<TRIPOS>BOND
     1    10     9 1
     2    11     9 1
     3     9     8 1
     4    13    12 1
     5    12     8 1
     6    12    14 1
     7     8     7 1
     8     7     6 1
     9    14    15 1
    10    14     5 1
    11     5     6 1
    12     5     4 1
    13     4     2 1
    14     3     2 2
    15     2     1 1
    16     1    16 1
    17     1    17 1
    18     1    18 1
    19     4    19 1
    20     5    20 1
    21     6    21 1
    22     7    22 1
    23     7    23 1
    24     8    24 1
    25    12    25 1
    26    13    26 1
    27    14    27 1
    28    15    28 1
    29     6    29 1
@<TRIPOS>SUBSTRUCTURE
     1 3XR         1 TEMP              0 ****  ****    0 ROOT
