@<TRIPOS>MOLECULE
molecule
   39    41     1     0     0
SMALL
bcc


@<TRIPOS>ATOM
      1 O9           0.0000     0.0000     0.0000 o          1 3XS      -0.823300
      2 C7           1.2150     0.0000     0.0000 c          1 3XS       0.885200
      3 O8           1.8890     0.0000     1.1670 o          1 3XS      -0.823300
      4 C3           1.9510    -0.0050    -1.2760 ca         1 3XS      -0.048600
      5 C4           2.9120     0.9730    -1.5380 ca         1 3XS      -0.110000
      6 C5           3.5980     0.9630    -2.7340 ca         1 3XS      -0.142000
      7 C6           3.3410    -0.0140    -3.6840 ca         1 3XS      -0.165000
      8 C1           2.3970    -0.9890    -3.4480 ca         1 3XS      -0.129000
      9 C2           1.6940    -1.0030    -2.2410 ca         1 3XS      -0.117900
     10 C11          0.6850    -2.0410    -1.9820 ce         1 3XS       0.365800
     11 N12          0.1170    -2.1190    -0.8160 n2         1 3XS      -0.286400
     12 N13         -0.8440    -3.1080    -0.5690 nu         1 3XS      -0.590000
     13 C14         -1.4490    -3.1910     0.6730 cc         1 3XS       0.751300
     14 S18         -1.1240    -2.1260     2.0380 ss         1 3XS      -0.022300
     15 C17         -2.3040    -3.0050     3.0070 cc         1 3XS      -0.273400
     16 C16         -2.8220    -3.9880     2.2490 cd         1 3XS       0.430800
     17 N15         -2.3490    -4.0630     1.0140 nd         1 3XS      -0.800000
     18 C19         -3.8520    -4.9250     2.7610 ca         1 3XS      -0.055500
     19 C24         -4.3570    -5.9280     1.9360 ca         1 3XS      -0.132000
     20 C23         -5.3190    -6.7990     2.4210 ca         1 3XS       0.125100
     21 O25         -5.8140    -7.7780     1.6180 os         1 3XS      -0.331900
     22 C26         -6.8030    -8.6410     2.1830 c3         1 3XS       0.131700
     23 C22         -5.7760    -6.6730     3.7240 ca         1 3XS      -0.236000
     24 C21         -5.2750    -5.6780     4.5440 ca         1 3XS      -0.101000
     25 C20         -4.3130    -4.8080     4.0710 ca         1 3XS      -0.160000
     26 H2           3.1130     1.7440    -0.8050 ha         1 3XS       0.143000
     27 H3           4.3430     1.7240    -2.9320 ha         1 3XS       0.107000
     28 H4           3.8870    -0.0100    -4.6200 ha         1 3XS       0.105000
     29 H5           2.2050    -1.7490    -4.1950 ha         1 3XS       0.107000
     30 H6           0.4160    -2.7410    -2.7640 h4         1 3XS      -0.034200
     31 H7          -1.0870    -3.7600    -1.2890 hn         1 3XS       0.420800
     32 H8          -2.5670    -2.7910     4.0360 h4         1 3XS       0.164000
     33 H9          -4.0580    -5.9750     0.8960 ha         1 3XS       0.166000
     34 H10         -7.1100    -9.3710     1.4440 h1         1 3XS       0.034033
     35 H11         -6.3880    -9.1510     3.0440 h1         1 3XS       0.034033
     36 H12         -7.6610    -8.0550     2.4900 h1         1 3XS       0.034033
     37 H13         -6.5300    -7.3540     4.1010 ha         1 3XS       0.121000
     38 H14         -5.6340    -5.5850     5.5620 ha         1 3XS       0.120000
     39 H15         -3.9220    -4.0300     4.7160 ha         1 3XS       0.134000
@<TRIPOS>BOND
     1    24    25 ar
     2    24    23 ar
     3    25    18 ar
     4    15    14 1
     5    15    16 2
     6    14    13 1
     7    23    20 ar
     8     7     8 ar
     9     7     6 ar
    10    18    16 1
    11    18    19 ar
    12    16    17 1
    13     8     9 ar
    14     6     5 ar
    15    13    17 2
    16    13    12 1
    17    20    19 ar
    18    20    21 1
    19    11    12 1
    20    11    10 2
    21     9    10 1
    22     9     4 ar
    23     5     4 ar
    24    21    22 1
    25     4     2 1
    26     2     1 1
    27     2     3 1
    28     5    26 1
    29     6    27 1
    30     7    28 1
    31     8    29 1
    32    10    30 1
    33    12    31 1
    34    15    32 1
    35    19    33 1
    36    22    34 1
    37    22    35 1
    38    22    36 1
    39    23    37 1
    40    24    38 1
    41    25    39 1
@<TRIPOS>SUBSTRUCTURE
     1 3XS         1 TEMP              0 ****  ****    0 ROOT
