@<TRIPOS>MOLECULE
3XS
   39    42     1     0     0
SMALL
bcc


@<TRIPOS>ATOM
      1 O9           0.0000     0.0000     0.0000 o          1 3XS      -0.604500
      2 C7           1.2150     0.0000     0.0000 c2         1 3XS       0.424000
      3 O8           1.8890     0.0000     1.1670 o          1 3XS      -0.604500
      4 C3           1.9510    -0.0050    -1.2760 c2         1 3XS      -0.061000
      5 C4           2.9120     0.9730    -1.5380 c2         1 3XS      -0.084000
      6 C5           3.5980     0.9630    -2.7340 c2         1 3XS      -0.105000
      7 C6           3.3410    -0.0140    -3.6840 c2         1 3XS      -0.155000
      8 C1           2.3970    -0.9890    -3.4480 c2         1 3XS      -0.054000
      9 C2           1.6940    -1.0030    -2.2410 c3         1 3XS      -0.098000
     10 C11          0.6850    -2.0410    -1.9820 c2         1 3XS      -0.547000
     11 N12          0.1170    -2.1190    -0.8160 n2         1 3XS       0.095000
     12 N13         -0.8440    -3.1080    -0.5690 nu         1 3XS       0.194000
     13 C14         -1.4490    -3.1910     0.6730 c2         1 3XS      -0.167000
     14 S18         -1.1240    -2.1260     2.0380 ss         1 3XS       0.395000
     15 C17         -2.3040    -3.0050     3.0070 c2         1 3XS      -0.389000
     16 C16         -2.8220    -3.9880     2.2490 c2         1 3XS      -0.040000
     17 N15         -2.3490    -4.0630     1.0140 n2         1 3XS      -0.158000
     18 C19         -3.8520    -4.9250     2.7610 ca         1 3XS       0.049000
     19 C24         -4.3570    -5.9280     1.9360 ca         1 3XS      -0.119000
     20 C23         -5.3190    -6.7990     2.4210 ca         1 3XS       0.092000
     21 O25         -5.8140    -7.7780     1.6180 os         1 3XS      -0.192000
     22 C26         -6.8030    -8.6410     2.1830 c3         1 3XS       0.054000
     23 C22         -5.7760    -6.6730     3.7240 ca         1 3XS      -0.228000
     24 C21         -5.2750    -5.6780     4.5440 ca         1 3XS      -0.067000
     25 C20         -4.3130    -4.8080     4.0710 ca         1 3XS      -0.145000
     26 H2           3.1140     1.7430    -0.8040 ha         1 3XS       0.117000
     27 H3           4.3430     1.7240    -2.9320 ha         1 3XS       0.085000
     28 H4           3.8870    -0.0100    -4.6200 ha         1 3XS       0.088000
     29 H5           2.2140    -1.7560    -4.1900 ha         1 3XS       0.105000
     30 H6           0.4560    -1.0020    -2.1870 DU         1 3XS       0.346000
     31 H7          -1.0830    -3.7630    -1.2870 hn         1 3XS       0.073000
     32 H8          -2.5670    -2.7910     4.0360 h4         1 3XS       0.152000
     33 H9          -4.0580    -5.9750     0.8960 ha         1 3XS       0.138000
     34 H10         -7.6610    -8.0550     2.4900 h1         1 3XS       0.031333
     35 H11         -6.3880    -9.1510     3.0440 h1         1 3XS       0.031333
     36 H12         -7.1100    -9.3710     1.4440 h1         1 3XS       0.031333
     37 H13         -6.5300    -7.3540     4.1010 ha         1 3XS       0.110000
     38 H14         -5.6340    -5.5850     5.5620 ha         1 3XS       0.092000
     39 H15         -3.9220    -4.0300     4.7160 ha         1 3XS       0.113000
@<TRIPOS>BOND
     1     1     2 1   
     2     2     3 1   
     3     2     4 1   
     4     4     5 1   
     5     4     9 1   
     6     5     6 1   
     7     5    26 1   
     8     6     7 1   
     9     6    27 1   
    10     7     8 1   
    11     7    28 1   
    12     8     9 1   
    13     8    29 1   
    14     9    10 1   
    15     9    30 1   
    16    10    11 1   
    17    10    30 1   
    18    11    12 1   
    19    12    13 1   
    20    12    31 1   
    21    13    14 1   
    22    13    17 1   
    23    14    15 1   
    24    15    16 1   
    25    15    32 1   
    26    16    17 1   
    27    16    18 1   
    28    18    19 1   
    29    18    25 1   
    30    19    20 1   
    31    19    33 1   
    32    20    21 1   
    33    20    23 1   
    34    21    22 1   
    35    22    34 1   
    36    22    35 1   
    37    22    36 1   
    38    23    24 1   
    39    23    37 1   
    40    24    25 1   
    41    24    38 1   
    42    25    39 1   
@<TRIPOS>SUBSTRUCTURE
     1 3XS         1 TEMP              0 ****  ****    0 ROOT
