@<TRIPOS>MOLECULE
3XT
   44    45     1     0     0
SMALL
bcc


@<TRIPOS>ATOM
      1 C11          0.0000     0.0000     0.0000 c3         1 3XT      -0.035400
      2 C10          1.5300     0.0000     0.0000 c3         1 3XT      -0.027400
      3 C9           2.0410     0.0000     1.4420 c3         1 3XT      -0.026400
      4 C8           1.5310     1.2500     2.1630 c3         1 3XT      -0.027400
      5 C1          -4.6560     2.4120    -1.5920 c2         1 3XT       0.374200
      6 C2          -4.1520     1.8320    -0.2950 c3         1 3XT      -0.039300
      7 N1          -5.5300     1.7770    -2.2790 n2         1 3XT      -0.621100
      8 C7           0.0010     1.2490     2.1640 c3         1 3XT      -0.035400
      9 C4          -2.0170     1.2480     0.7220 c          1 3XT       0.581100
     10 C6          -0.5100     1.2490     0.7210 c3         1 3XT      -0.047600
     11 C15          0.2390     4.8710    -0.1340 ca         1 3XT      -0.166600
     12 C16          1.1110     4.7420    -1.2190 ca         1 3XT      -0.098000
     13 C17          1.6480     5.8670    -1.8060 ca         1 3XT       0.055900
     14 C18          1.3230     7.1310    -1.3180 ca         1 3XT       0.035600
     15 C19          0.4560     7.2610    -0.2370 ca         1 3XT      -0.130000
     16 C20         -0.0890     6.1410     0.3490 ca         1 3XT      -0.021000
     17 O14         -1.1010     3.7830     1.4370 o          1 3XT      -0.634100
     18 N3          -2.6910     1.7410    -0.3360 ns         1 3XT      -0.190900
     19 N12         -0.0220     2.4450     0.0310 ns         1 3XT      -0.210900
     20 N21          1.8660     8.2670    -1.9120 nv         1 3XT      -0.503200
     21 F22          2.4910     5.7450    -2.8540 f          1 3XT      -0.125900
     22 H1          -0.3600    -0.8840     0.5130 hc         1 3XT       0.041200
     23 H2          -0.3600     0.0020    -1.0220 hc         1 3XT       0.041200
     24 H3           1.8890     0.8860    -0.5090 hc         1 3XT       0.015200
     25 H4           1.8890    -0.8860    -0.5090 hc         1 3XT       0.015200
     26 H5           3.1240     0.0020     1.4400 hc         1 3XT       0.017200
     27 H6           1.6770    -0.8830     1.9530 hc         1 3XT       0.017200
     28 H7           1.8920     1.2480     3.1840 hc         1 3XT       0.015200
     29 H8           1.8900     2.1330     1.6490 hc         1 3XT       0.015200
     30 H9          -4.2790     3.3650    -1.9430 h4         1 3XT      -0.009200
     31 H10         -4.5720     0.8440    -0.1540 h1         1 3XT       0.036700
     32 H11         -4.4510     2.4730     0.5260 h1         1 3XT       0.036700
     33 H12         -5.8780     0.8970    -1.9550 hn         1 3XT       0.318400
     34 H13         -0.3590     0.3630     2.6730 hc         1 3XT       0.041200
     35 H14         -0.3590     2.1350     2.6730 hc         1 3XT       0.041200
     36 H15          1.3630     3.7590    -1.5990 ha         1 3XT       0.114000
     37 H16          0.2030     8.2450     0.1390 ha         1 3XT       0.118000
     38 H17         -0.7640     6.2430     1.1900 ha         1 3XT       0.131000
     39 H18         -2.1930     2.0450    -1.1490 hn         1 3XT       0.172500
     40 H19          0.5210     2.3540    -0.8050 hn         1 3XT       0.188500
     41 H20          1.7170     8.4420    -2.8860 hn         1 3XT       0.277300
     42 H21          2.4310     8.8930    -1.3720 hn         1 3XT       0.277300
     43 O5          -2.6240     0.8050     1.6740 o          1 3XT      -0.627100
     44 C13         -0.3390     3.6690     0.4970 c          1 3XT       0.599700
@<TRIPOS>BOND
     1     1     2 1   
     2     1    10 1   
     3     1    22 1   
     4     1    23 1   
     5     2     3 1   
     6     2    24 1   
     7     2    25 1   
     8     3     4 1   
     9     3    26 1   
    10     3    27 1   
    11     4     8 1   
    12     4    28 1   
    13     4    29 1   
    14     5     6 1   
    15     5     7 2   
    16     5    30 1   
    17     6    18 1   
    18     6    31 1   
    19     6    32 1   
    20     7    33 1   
    21     8    10 1   
    22     8    34 1   
    23     8    35 1   
    24     9    10 1   
    25     9    18 1   
    26     9    43 2   
    27    10    19 1   
    28    11    12 ar  
    29    11    16 ar  
    30    11    44 1   
    31    12    13 ar  
    32    12    36 1   
    33    13    14 ar  
    34    13    21 1   
    35    14    15 ar  
    36    14    20 1   
    37    15    16 ar  
    38    15    37 1   
    39    16    38 1   
    40    17    44 2   
    41    18    39 1   
    42    19    40 1   
    43    19    44 1   
    44    20    41 1   
    45    20    42 1   
@<TRIPOS>SUBSTRUCTURE
     1 3XT         1 TEMP              0 ****  ****    0 ROOT
