@<TRIPOS>MOLECULE
molecule
   44    45     1     0     0
SMALL
bcc


@<TRIPOS>ATOM
      1 C11          0.0000     0.0000     0.0000 c3         1 3XT      -0.080400
      2 C10          1.5300     0.0000     0.0000 c3         1 3XT      -0.080400
      3 C9           2.0410     0.0000     1.4420 c3         1 3XT      -0.082400
      4 C8           1.5310     1.2500     2.1630 c3         1 3XT      -0.080400
      5 C1          -4.6560     2.4120    -1.5920 c2         1 3XT       0.415200
      6 C2          -4.1520     1.8320    -0.2950 c3         1 3XT       0.066700
      7 N1          -5.5300     1.7770    -2.2790 n2         1 3XT      -0.778100
      8 C7           0.0010     1.2490     2.1640 c3         1 3XT      -0.080400
      9 C4          -2.0170     1.2480     0.7220 c          1 3XT       0.669100
     10 C6          -0.5100     1.2490     0.7210 c3         1 3XT       0.063400
     11 C15          0.2390     4.8710    -0.1340 ca         1 3XT      -0.165600
     12 C16          1.1110     4.7420    -1.2190 ca         1 3XT      -0.121000
     13 C17          1.6480     5.8670    -1.8060 ca         1 3XT       0.069900
     14 C18          1.3230     7.1310    -1.3180 ca         1 3XT       0.177600
     15 C19          0.4560     7.2610    -0.2370 ca         1 3XT      -0.171000
     16 C20         -0.0890     6.1410     0.3490 ca         1 3XT      -0.051000
     17 O14         -1.1010     3.7830     1.4370 o          1 3XT      -0.595100
     18 N3          -2.6910     1.7410    -0.3360 ns         1 3XT      -0.580900
     19 N12         -0.0220     2.4450     0.0310 ns         1 3XT      -0.587900
     20 N21          1.8660     8.2670    -1.9120 nv         1 3XT      -0.942200
     21 F22          2.4910     5.7450    -2.8540 f          1 3XT      -0.140900
     22 H1          -0.3600    -0.8840     0.5130 hc         1 3XT       0.067700
     23 H2          -0.3600     0.0020    -1.0220 hc         1 3XT       0.067700
     24 H3           1.8900    -0.8860    -0.5090 hc         1 3XT       0.043450
     25 H4           1.8890     0.8860    -0.5090 hc         1 3XT       0.043450
     26 H5           1.6770    -0.8830     1.9530 hc         1 3XT       0.044700
     27 H6           3.1240     0.0020     1.4400 hc         1 3XT       0.044700
     28 H7           1.8900     2.1330     1.6490 hc         1 3XT       0.043450
     29 H8           1.8920     1.2480     3.1840 hc         1 3XT       0.043450
     30 H9          -4.2800     3.3650    -1.9420 h4         1 3XT      -0.040200
     31 H10         -4.4510     2.4730     0.5260 h1         1 3XT       0.076200
     32 H11         -4.5720     0.8440    -0.1540 h1         1 3XT       0.076200
     33 H12         -5.8650     2.1620    -3.1400 hn         1 3XT       0.397400
     34 H13         -0.3590     0.3630     2.6730 hc         1 3XT       0.067700
     35 H14         -0.3590     2.1350     2.6730 hc         1 3XT       0.067700
     36 H15          1.3630     3.7590    -1.5990 ha         1 3XT       0.137000
     37 H16          0.2030     8.2450     0.1390 ha         1 3XT       0.147000
     38 H17         -0.7640     6.2430     1.1900 ha         1 3XT       0.163000
     39 H18         -2.1950     2.0220    -1.1580 hn         1 3XT       0.310500
     40 H19          0.5190     2.3540    -0.8070 hn         1 3XT       0.317500
     41 H20          1.8690     8.3580    -2.9090 hn         1 3XT       0.438300
     42 H21          2.2650     8.9880    -1.3430 hn         1 3XT       0.438300
     43 O5          -2.6240     0.8050     1.6740 o          1 3XT      -0.593100
     44 C13         -0.3390     3.6690     0.4970 c          1 3XT       0.675700
@<TRIPOS>BOND
     1     2     1 1
     2     2     3 1
     3     1    10 1
     4    17    44 2
     5     3     4 1
     6    12    11 ar
     7    12    13 ar
     8    44    11 1
     9    44    19 1
    10    21    13 1
    11    11    16 ar
    12    13    14 ar
    13    19    10 1
    14    10     9 1
    15    10     8 1
    16    18     9 1
    17    18     6 1
    18    16    15 ar
    19    14    15 ar
    20    14    20 1
    21     4     8 1
    22     9    43 2
    23     6     5 1
    24     5     7 2
    25     1    22 1
    26     1    23 1
    27     2    24 1
    28     2    25 1
    29     3    26 1
    30     3    27 1
    31     4    28 1
    32     4    29 1
    33     5    30 1
    34     6    31 1
    35     6    32 1
    36     7    33 1
    37     8    34 1
    38     8    35 1
    39    12    36 1
    40    15    37 1
    41    16    38 1
    42    18    39 1
    43    19    40 1
    44    20    41 1
    45    20    42 1
@<TRIPOS>SUBSTRUCTURE
     1 3XT         1 TEMP              0 ****  ****    0 ROOT
