@<TRIPOS>MOLECULE
molecule
  149   148     1     0     0
SMALL
bcc


@<TRIPOS>ATOM
      1 O1           0.0000     0.0000     0.0000 o          1 3XU      -0.622100
      2 N            1.8870     0.0010    -1.1670 ns         1 3XU      -0.555900
      3 C1           2.4000    -2.0250    -3.1540 c2         1 3XU      -0.229200
      4 O5           1.1200     3.9110    -4.7030 o          1 3XU      -0.795000
      5 P            1.9610     3.7300    -3.5000 p5         1 3XU       1.324800
      6 O3           1.3690     4.6140    -2.2920 o          1 3XU      -0.795000
      7 O4           3.4630     4.2090    -3.8290 os         1 3XU      -0.612200
      8 C42          3.7710     5.5080    -4.3380 c3         1 3XU       0.201400
      9 C43          5.2820     5.6320    -4.5380 c3         1 3XU       0.093800
     10 N1           5.7110     4.7220    -5.6080 n4         1 3XU      -0.569800
     11 C46          4.9430     5.0040    -6.8280 c3         1 3XU       0.098433
     12 C45          7.1430     4.9190    -5.8750 c3         1 3XU       0.098433
     13 C44          5.4770     3.3320    -5.1930 c3         1 3XU       0.098433
     14 C41          0.7840     1.4300    -2.8170 c3         1 3XU       0.201400
     15 C16          1.1550    -0.0050    -2.4360 c3         1 3XU       0.111700
     16 C            2.0350    -0.6120    -3.5300 c3         1 3XU       0.251300
     17 O            3.2250     0.1660    -3.6700 oh         1 3XU      -0.578800
     18 C3           1.7230    -2.7030    -5.4000 c3         1 3XU       0.075800
     19 C4           2.6470    -3.4020    -6.3980 c3         1 3XU      -0.098400
     20 C5           2.1840    -3.0960    -7.8240 c3         1 3XU      -0.091400
     21 C6           3.1090    -3.7950    -8.8220 c3         1 3XU      -0.079400
     22 C7           2.6460    -3.4890   -10.2480 c3         1 3XU      -0.082400
     23 C8           3.5700    -4.1870   -11.2460 c3         1 3XU      -0.082400
     24 C9           3.1060    -3.8820   -12.6720 c3         1 3XU      -0.082400
     25 C10          4.0320    -4.5800   -13.6700 c3         1 3XU      -0.081400
     26 C11          3.5680    -4.2740   -15.0950 c3         1 3XU      -0.081400
     27 C12          4.4920    -4.9730   -16.0940 c3         1 3XU      -0.082400
     28 C13          4.0290    -4.6670   -17.5190 c3         1 3XU      -0.081400
     29 C14          4.9540    -5.3660   -18.5170 c3         1 3XU      -0.084400
     30 C15          4.4910    -5.0600   -19.9430 c3         1 3XU      -0.092100
     31 C17          1.2130     0.0000     0.0000 c          1 3XU       0.663100
     32 C18          1.9660     0.0000     1.3050 c3         1 3XU      -0.155400
     33 C19          0.9710    -0.0010     2.4690 c3         1 3XU      -0.066400
     34 C20          1.7360    -0.0020     3.7930 c3         1 3XU      -0.085400
     35 C21          0.7410    -0.0030     4.9560 c3         1 3XU      -0.080400
     36 C22          1.5060    -0.0030     6.2810 c3         1 3XU      -0.082400
     37 C23          0.5110    -0.0040     7.4440 c3         1 3XU      -0.082400
     38 C24          1.2760    -0.0050     8.7690 c3         1 3XU      -0.082400
     39 C25          0.2810    -0.0060     9.9320 c3         1 3XU      -0.082400
     40 C26          1.0460    -0.0060    11.2570 c3         1 3XU      -0.082400
     41 C27          0.0510    -0.0070    12.4200 c3         1 3XU      -0.080400
     42 C28          0.8160    -0.0080    13.7450 c3         1 3XU      -0.090400
     43 C29         -0.1790    -0.0090    14.9080 c3         1 3XU      -0.097400
     44 C30          0.5860    -0.0100    16.2320 c3         1 3XU       0.067800
     45 C31         -0.3930    -0.0110    17.3780 c2         1 3XU      -0.231200
     46 C32         -0.2980    -0.9150    18.3210 c2         1 3XU      -0.234200
     47 C33          0.8860    -1.8480    18.3530 c3         1 3XU       0.066800
     48 C34          1.5350    -1.7980    19.7380 c3         1 3XU      -0.097400
     49 C35          2.7370    -2.7450    19.7710 c3         1 3XU      -0.090400
     50 C36          3.3870    -2.6960    21.1550 c3         1 3XU      -0.080400
     51 C37          4.5880    -3.6420    21.1880 c3         1 3XU      -0.082400
     52 C38          5.2380    -3.5930    22.5730 c3         1 3XU      -0.081400
     53 C39          6.4400    -4.5400    22.6060 c3         1 3XU      -0.084400
     54 C40          7.0890    -4.4900    23.9910 c3         1 3XU      -0.092100
     55 H1           2.8880    -0.0190    -1.1660 hn         1 3XU       0.325500
     56 H2           3.0740    -1.4120    -3.7400 ha         1 3XU       0.080000
     57 H4           3.2680     5.6520    -5.2870 h1         1 3XU       0.070700
     58 H5           3.4370     6.2600    -3.6340 h1         1 3XU       0.070700
     59 H6           5.7910     5.3730    -3.6180 hx         1 3XU       0.094200
     60 H7           5.5280     6.6520    -4.8110 hx         1 3XU       0.094200
     61 H8           4.8340     6.0750    -6.9470 hx         1 3XU       0.094700
     62 H9           3.9640     4.5470    -6.7520 hx         1 3XU       0.094700
     63 H10          5.4650     4.5970    -7.6860 hx         1 3XU       0.094700
     64 H11          7.3160     5.9430    -6.1830 hx         1 3XU       0.094700
     65 H12          7.7090     4.7120    -4.9750 hx         1 3XU       0.094700
     66 H13          7.4590     4.2460    -6.6630 hx         1 3XU       0.094700
     67 H14          6.1740     2.6800    -5.7050 hx         1 3XU       0.094700
     68 H15          5.6220     3.2460    -4.1230 hx         1 3XU       0.094700
     69 H16          4.4630     3.0460    -5.4450 hx         1 3XU       0.094700
     70 H17          0.1680     1.4190    -3.7080 h1         1 3XU       0.051200
     71 H18          0.2360     1.8900    -2.0040 h1         1 3XU       0.051200
     72 H19          0.2520    -0.5950    -2.3300 h1         1 3XU       0.092700
     73 H20          1.4930    -0.6170    -4.4680 h1         1 3XU       0.069700
     74 H21          3.4310     0.2650    -4.5850 ho         1 3XU       0.393000
     75 H22          1.1320    -2.8410    -4.2170 ha         1 3XU       0.063000
     76 H23          1.7540    -1.6330    -5.5680 hc         1 3XU       0.040700
     77 H24          0.7090    -3.0600    -5.5350 hc         1 3XU       0.040700
     78 H25          3.6610    -3.0440    -6.2640 hc         1 3XU       0.053700
     79 H26          2.6170    -4.4720    -6.2310 hc         1 3XU       0.053700
     80 H27          2.2130    -2.0260    -7.9910 hc         1 3XU       0.039700
     81 H28          1.1710    -3.4550    -7.9580 hc         1 3XU       0.039700
     82 H29          3.0800    -4.8640    -8.6540 hc         1 3XU       0.041700
     83 H30          4.1220    -3.4360    -8.6870 hc         1 3XU       0.041700
     84 H31          1.6320    -3.8470   -10.3830 hc         1 3XU       0.041200
     85 H32          2.6760    -2.4190   -10.4160 hc         1 3XU       0.041200
     86 H33          4.5830    -3.8290   -11.1110 hc         1 3XU       0.041200
     87 H34          3.5400    -5.2570   -11.0780 hc         1 3XU       0.041200
     88 H35          3.1360    -2.8120   -12.8390 hc         1 3XU       0.041200
     89 H36          2.0930    -4.2400   -12.8070 hc         1 3XU       0.041200
     90 H37          5.0450    -4.2210   -13.5350 hc         1 3XU       0.041200
     91 H38          4.0020    -5.6500   -13.5020 hc         1 3XU       0.041200
     92 H39          2.5550    -4.6330   -15.2300 hc         1 3XU       0.041200
     93 H40          3.5980    -3.2050   -15.2630 hc         1 3XU       0.041200
     94 H41          5.5060    -4.6140   -15.9590 hc         1 3XU       0.040700
     95 H42          4.4630    -6.0430   -15.9260 hc         1 3XU       0.040700
     96 H43          4.0590    -3.5970   -17.6870 hc         1 3XU       0.041200
     97 H44          3.0160    -5.0250   -17.6540 hc         1 3XU       0.041200
     98 H45          4.9240    -6.4360   -18.3500 hc         1 3XU       0.039700
     99 H46          5.9680    -5.0080   -18.3820 hc         1 3XU       0.039700
    100 H47          5.1430    -5.5590   -20.6500 hc         1 3XU       0.033033
    101 H48          3.4750    -5.4130   -20.0770 hc         1 3XU       0.033033
    102 H49          4.5270    -3.9900   -20.1130 hc         1 3XU       0.033033
    103 H50          2.5880     0.8850     1.3630 hc         1 3XU       0.057200
    104 H52          0.3480    -0.8860     2.4110 hc         1 3XU       0.059700
    105 H54          2.3590    -0.8860     3.8500 hc         1 3XU       0.036700
    106 H55          2.3580     0.8830     3.8520 hc         1 3XU       0.036700
    107 H56          0.1170     0.8800     4.8980 hc         1 3XU       0.044700
    108 H57          0.1190    -0.8890     4.8970 hc         1 3XU       0.044700
    109 H58          2.1290    -0.8870     6.3390 hc         1 3XU       0.038700
    110 H59          2.1280     0.8820     6.3390 hc         1 3XU       0.038700
    111 H60         -0.1120    -0.8890     7.3850 hc         1 3XU       0.042700
    112 H61         -0.1120     0.8800     7.3860 hc         1 3XU       0.042700
    113 H62          1.8990    -0.8890     8.8260 hc         1 3XU       0.039700
    114 H63          1.8990     0.8800     8.8270 hc         1 3XU       0.039700
    115 H64         -0.3420    -0.8900     9.8730 hc         1 3XU       0.042200
    116 H65         -0.3420     0.8790     9.8740 hc         1 3XU       0.042200
    117 H66          1.6690     0.8780    11.3150 hc         1 3XU       0.039700
    118 H67          1.6690    -0.8910    11.3140 hc         1 3XU       0.039700
    119 H68         -0.5720    -0.8920    12.3610 hc         1 3XU       0.043700
    120 H69         -0.5720     0.8770    12.3620 hc         1 3XU       0.043700
    121 H70          1.4390     0.8770    13.8030 hc         1 3XU       0.038200
    122 H71          1.4390    -0.8920    13.8020 hc         1 3XU       0.038200
    123 H72         -0.8010    -0.8930    14.8490 hc         1 3XU       0.055700
    124 H73         -0.8020     0.8760    14.8510 hc         1 3XU       0.055700
    125 H74          1.2100    -0.8940    16.2890 hc         1 3XU       0.043200
    126 H75          1.2090     0.8750    16.2900 hc         1 3XU       0.043200
    127 H76          0.5740     0.4690    17.4710 ha         1 3XU       0.069000
    128 H77         -0.2830    -1.8180    17.7230 ha         1 3XU       0.070000
    129 H78          0.5550    -2.8580    18.1460 hc         1 3XU       0.043200
    130 H79          1.6070    -1.5430    17.6050 hc         1 3XU       0.043200
    131 H80          1.8660    -0.7870    19.9460 hc         1 3XU       0.054700
    132 H81          0.8140    -2.1030    20.4870 hc         1 3XU       0.054700
    133 H82          3.4580    -2.4390    19.0230 hc         1 3XU       0.038700
    134 H83          2.4060    -3.7550    19.5630 hc         1 3XU       0.038700
    135 H84          2.6660    -3.0010    21.9040 hc         1 3XU       0.043200
    136 H85          3.7170    -1.6850    21.3630 hc         1 3XU       0.043200
    137 H86          4.2580    -4.6520    20.9800 hc         1 3XU       0.040200
    138 H87          5.3100    -3.3360    20.4400 hc         1 3XU       0.040200
    139 H88          5.5690    -2.5830    22.7810 hc         1 3XU       0.041700
    140 H89          4.5170    -3.8980    23.3210 hc         1 3XU       0.041700
    141 H90          6.1090    -5.5500    22.3990 hc         1 3XU       0.039700
    142 H91          7.1610    -4.2350    21.8580 hc         1 3XU       0.039700
    143 H92          7.4310    -3.4820    24.1940 hc         1 3XU       0.032700
    144 H93          6.3640    -4.7830    24.7410 hc         1 3XU       0.032700
    145 H94          7.9330    -5.1690    24.0190 hc         1 3XU       0.032700
    146 H51          2.5890    -0.8840     1.3620 hc         1 3XU       0.057200
    147 H53          0.3480     0.8840     2.4120 hc         1 3XU       0.059700
    148 O2           1.9750     2.1780    -3.0720 os         1 3XU      -0.603200
    149 C2           2.1800    -3.0050    -3.9950 c2         1 3XU      -0.254200
@<TRIPOS>BOND
     1    21    22 1
     2    21    20 1
     3    19    18 1
     4    19    20 1
     5    22    23 1
     6    18   149 1
     7    26    27 1
     8    26    25 1
     9    24    23 1
    10    24    25 1
    11   149     3 2
    12    27    28 1
    13    17    16 1
    14     3    16 1
    15    16    15 1
    16    30    29 1
    17    28    29 1
    18    54    53 1
    19    15     2 1
    20    15    14 1
    21     2    31 1
    22    14   148 1
    23    31    32 1
    24    31     1 2
    25    53    52 1
    26    32    33 1
    27   148     5 1
    28    35    34 1
    29    35    36 1
    30    33    34 1
    31    37    36 1
    32    37    38 1
    33    52    51 1
    34     4     5 1
    35     5     7 1
    36     5     6 1
    37     7     8 1
    38    38    39 1
    39    39    40 1
    40    40    41 1
    41    41    42 1
    42    51    50 1
    43     8     9 1
    44    42    43 1
    45    50    49 1
    46     9    10 1
    47    13    10 1
    48    43    44 1
    49    44    45 1
    50    10    11 1
    51    10    12 1
    52    49    48 1
    53    45    46 2
    54    47    48 1
    55    47    46 1
    56     2    55 1
    57     3    56 1
    58     8    57 1
    59     8    58 1
    60     9    59 1
    61     9    60 1
    62    11    61 1
    63    11    62 1
    64    11    63 1
    65    12    64 1
    66    12    65 1
    67    12    66 1
    68    13    67 1
    69    13    68 1
    70    13    69 1
    71    14    70 1
    72    14    71 1
    73    15    72 1
    74    16    73 1
    75    17    74 1
    76   149    75 1
    77    18    76 1
    78    18    77 1
    79    19    78 1
    80    19    79 1
    81    20    80 1
    82    20    81 1
    83    21    82 1
    84    21    83 1
    85    22    84 1
    86    22    85 1
    87    23    86 1
    88    23    87 1
    89    24    88 1
    90    24    89 1
    91    25    90 1
    92    25    91 1
    93    26    92 1
    94    26    93 1
    95    27    94 1
    96    27    95 1
    97    28    96 1
    98    28    97 1
    99    29    98 1
   100    29    99 1
   101    30   100 1
   102    30   101 1
   103    30   102 1
   104    32   103 1
   105    33   104 1
   106    34   105 1
   107    34   106 1
   108    35   107 1
   109    35   108 1
   110    36   109 1
   111    36   110 1
   112    37   111 1
   113    37   112 1
   114    38   113 1
   115    38   114 1
   116    39   115 1
   117    39   116 1
   118    40   117 1
   119    40   118 1
   120    41   119 1
   121    41   120 1
   122    42   121 1
   123    42   122 1
   124    43   123 1
   125    43   124 1
   126    44   125 1
   127    44   126 1
   128    45   127 1
   129    46   128 1
   130    47   129 1
   131    47   130 1
   132    48   131 1
   133    48   132 1
   134    49   133 1
   135    49   134 1
   136    50   135 1
   137    50   136 1
   138    51   137 1
   139    51   138 1
   140    52   139 1
   141    52   140 1
   142    53   141 1
   143    53   142 1
   144    54   143 1
   145    54   144 1
   146    54   145 1
   147    32   146 1
   148    33   147 1
@<TRIPOS>SUBSTRUCTURE
     1 3XU         1 TEMP              0 ****  ****    0 ROOT
