@<TRIPOS>MOLECULE
3XU
  149   148     1     0     0
SMALL
bcc


@<TRIPOS>ATOM
      1 O1           0.0000     0.0000     0.0000 o          1 3XU      -0.660100
      2 N            1.8870     0.0010    -1.1670 ns         1 3XU      -0.166900
      3 C1           2.4000    -2.0250    -3.1540 c2         1 3XU      -0.225200
      4 O5           1.1200     3.9110    -4.7030 o          1 3XU      -0.637000
      5 P            1.9610     3.7300    -3.5000 p5         1 3XU       0.913800
      6 O3           1.3690     4.6140    -2.2920 o          1 3XU      -0.637000
      7 O4           3.4630     4.2090    -3.8290 os         1 3XU      -0.522200
      8 C42          3.7710     5.5080    -4.3380 c3         1 3XU       0.288400
      9 C43          5.2820     5.6320    -4.5380 c3         1 3XU      -0.040200
     10 N1           5.7110     4.7220    -5.6080 n4         1 3XU       0.063200
     11 C46          4.9430     5.0040    -6.8280 c3         1 3XU       0.011433
     12 C45          7.1430     4.9190    -5.8750 c3         1 3XU       0.011433
     13 C44          5.4770     3.3320    -5.1930 c3         1 3XU       0.011433
     14 C41          0.7840     1.4300    -2.8170 c3         1 3XU       0.298400
     15 C16          1.1550    -0.0050    -2.4360 c3         1 3XU      -0.007300
     16 C            2.0350    -0.6120    -3.5300 c3         1 3XU       0.216300
     17 O            3.2250     0.1660    -3.6700 oh         1 3XU      -0.555800
     18 C3           1.7230    -2.7030    -5.4000 c3         1 3XU      -0.016200
     19 C4           2.6470    -3.4020    -6.3980 c3         1 3XU      -0.022400
     20 C5           2.1840    -3.0960    -7.8240 c3         1 3XU      -0.029400
     21 C6           3.1090    -3.7950    -8.8220 c3         1 3XU      -0.028400
     22 C7           2.6460    -3.4890   -10.2480 c3         1 3XU      -0.029400
     23 C8           3.5700    -4.1870   -11.2460 c3         1 3XU      -0.029400
     24 C9           3.1060    -3.8820   -12.6720 c3         1 3XU      -0.029400
     25 C10          4.0320    -4.5800   -13.6700 c3         1 3XU      -0.029400
     26 C11          3.5680    -4.2740   -15.0950 c3         1 3XU      -0.029400
     27 C12          4.4920    -4.9730   -16.0940 c3         1 3XU      -0.029400
     28 C13          4.0290    -4.6670   -17.5190 c3         1 3XU      -0.029400
     29 C14          4.9540    -5.3660   -18.5170 c3         1 3XU      -0.028400
     30 C15          4.4910    -5.0600   -19.9430 c3         1 3XU       0.005900
     31 C17          1.2130     0.0000     0.0000 c          1 3XU       0.569100
     32 C18          1.9660     0.0000     1.3050 c3         1 3XU      -0.097400
     33 C19          0.9710    -0.0010     2.4690 c3         1 3XU      -0.015400
     34 C20          1.7360    -0.0020     3.7930 c3         1 3XU      -0.032400
     35 C21          0.7410    -0.0030     4.9560 c3         1 3XU      -0.027400
     36 C22          1.5060    -0.0030     6.2810 c3         1 3XU      -0.029400
     37 C23          0.5110    -0.0040     7.4440 c3         1 3XU      -0.029400
     38 C24          1.2760    -0.0050     8.7690 c3         1 3XU      -0.029400
     39 C25          0.2810    -0.0060     9.9320 c3         1 3XU      -0.029400
     40 C26          1.0460    -0.0060    11.2570 c3         1 3XU      -0.029400
     41 C27          0.0510    -0.0070    12.4200 c3         1 3XU      -0.029400
     42 C28          0.8160    -0.0080    13.7450 c3         1 3XU      -0.029400
     43 C29         -0.1790    -0.0090    14.9080 c3         1 3XU      -0.024400
     44 C30          0.5860    -0.0100    16.2320 c3         1 3XU      -0.005200
     45 C31         -0.3930    -0.0110    17.3780 c2         1 3XU      -0.157200
     46 C32         -0.2980    -0.9150    18.3210 c2         1 3XU      -0.159200
     47 C33          0.8860    -1.8480    18.3530 c3         1 3XU      -0.005200
     48 C34          1.5350    -1.7980    19.7380 c3         1 3XU      -0.024400
     49 C35          2.7370    -2.7450    19.7710 c3         1 3XU      -0.030400
     50 C36          3.3870    -2.6960    21.1550 c3         1 3XU      -0.029400
     51 C37          4.5880    -3.6420    21.1880 c3         1 3XU      -0.029400
     52 C38          5.2380    -3.5930    22.5730 c3         1 3XU      -0.030400
     53 C39          6.4400    -4.5400    22.6060 c3         1 3XU      -0.028400
     54 C40          7.0890    -4.4900    23.9910 c3         1 3XU       0.005900
     55 H1           2.8880     0.0350    -1.1670 hn         1 3XU       0.176500
     56 H2           2.7280    -2.2440    -2.1450 ha         1 3XU       0.111000
     57 H4           3.2680     5.6520    -5.2870 h1         1 3XU       0.020200
     58 H5           3.4370     6.2600    -3.6340 h1         1 3XU       0.020200
     59 H6           5.5280     6.6520    -4.8110 hx         1 3XU       0.065200
     60 H7           5.7910     5.3730    -3.6180 hx         1 3XU       0.065200
     61 H8           3.9670     4.5390    -6.7560 hx         1 3XU       0.070144
     62 H9           4.8250     6.0750    -6.9420 hx         1 3XU       0.070144
     63 H10          5.4700     4.6060    -7.6870 hx         1 3XU       0.070144
     64 H11          7.7090     4.7170    -4.9730 hx         1 3XU       0.070144
     65 H12          7.4600     4.2420    -6.6590 hx         1 3XU       0.070144
     66 H13          7.3150     5.9410    -6.1880 hx         1 3XU       0.070144
     67 H14          5.6140     3.2480    -4.1220 hx         1 3XU       0.070144
     68 H15          4.4660     3.0440    -5.4520 hx         1 3XU       0.070144
     69 H16          6.1790     2.6810    -5.7000 hx         1 3XU       0.070144
     70 H17          0.1680     1.4190    -3.7080 h1         1 3XU       0.003200
     71 H18          0.2360     1.8900    -2.0040 h1         1 3XU       0.003200
     72 H19          0.2520    -0.5950    -2.3300 h1         1 3XU       0.057700
     73 H20          1.4930    -0.6170    -4.4680 h1         1 3XU       0.034700
     74 H21          3.9260    -0.3840    -3.9780 ho         1 3XU       0.363000
     75 H22          2.4430    -4.0190    -3.7220 ha         1 3XU       0.100000
     76 H23          0.7090    -3.0600    -5.5350 hc         1 3XU       0.034200
     77 H24          1.7540    -1.6330    -5.5670 hc         1 3XU       0.034200
     78 H25          2.6170    -4.4720    -6.2310 hc         1 3XU       0.011700
     79 H26          3.6610    -3.0440    -6.2640 hc         1 3XU       0.011700
     80 H27          2.2130    -2.0260    -7.9910 hc         1 3XU       0.016700
     81 H28          1.1710    -3.4550    -7.9580 hc         1 3XU       0.016700
     82 H29          3.0790    -4.8640    -8.6540 hc         1 3XU       0.012700
     83 H30          4.1220    -3.4360    -8.6870 hc         1 3XU       0.012700
     84 H31          2.6760    -2.4190   -10.4160 hc         1 3XU       0.015700
     85 H32          1.6320    -3.8470   -10.3830 hc         1 3XU       0.015700
     86 H33          3.5400    -5.2570   -11.0780 hc         1 3XU       0.013700
     87 H34          4.5830    -3.8290   -11.1110 hc         1 3XU       0.013700
     88 H35          3.1360    -2.8120   -12.8390 hc         1 3XU       0.015200
     89 H36          2.0930    -4.2400   -12.8070 hc         1 3XU       0.015200
     90 H37          5.0450    -4.2210   -13.5350 hc         1 3XU       0.014200
     91 H38          4.0020    -5.6500   -13.5020 hc         1 3XU       0.014200
     92 H39          3.5980    -3.2050   -15.2630 hc         1 3XU       0.014700
     93 H40          2.5550    -4.6330   -15.2300 hc         1 3XU       0.014700
     94 H41          4.4630    -6.0430   -15.9260 hc         1 3XU       0.013700
     95 H42          5.5060    -4.6140   -15.9590 hc         1 3XU       0.013700
     96 H43          3.0160    -5.0250   -17.6540 hc         1 3XU       0.014700
     97 H44          4.0590    -3.5970   -17.6870 hc         1 3XU       0.014700
     98 H45          4.9240    -6.4360   -18.3500 hc         1 3XU       0.011700
     99 H46          5.9680    -5.0080   -18.3820 hc         1 3XU       0.011700
    100 H47          4.5260    -3.9900   -20.1120 hc         1 3XU      -0.000300
    101 H48          3.4760    -5.4130   -20.0770 hc         1 3XU      -0.000300
    102 H49          5.1430    -5.5590   -20.6500 hc         1 3XU      -0.000300
    103 H50          2.5890    -0.8840     1.3620 hc         1 3XU       0.022200
    104 H52          0.3480    -0.8860     2.4110 hc         1 3XU       0.031700
    105 H54          2.3590    -0.8860     3.8500 hc         1 3XU       0.009200
    106 H55          2.3580     0.8830     3.8520 hc         1 3XU       0.009200
    107 H56          0.1190    -0.8890     4.8970 hc         1 3XU       0.017700
    108 H57          0.1170     0.8800     4.8980 hc         1 3XU       0.017700
    109 H58          2.1280     0.8820     6.3390 hc         1 3XU       0.012700
    110 H59          2.1290    -0.8870     6.3390 hc         1 3XU       0.012700
    111 H60         -0.1120     0.8800     7.3860 hc         1 3XU       0.015700
    112 H61         -0.1120    -0.8890     7.3850 hc         1 3XU       0.015700
    113 H62          1.8990    -0.8890     8.8260 hc         1 3XU       0.013200
    114 H63          1.8990     0.8800     8.8270 hc         1 3XU       0.013200
    115 H64         -0.3420     0.8790     9.8740 hc         1 3XU       0.015200
    116 H65         -0.3420    -0.8900     9.8730 hc         1 3XU       0.015200
    117 H66          1.6690    -0.8910    11.3140 hc         1 3XU       0.014200
    118 H67          1.6690     0.8780    11.3150 hc         1 3XU       0.014200
    119 H68         -0.5720     0.8770    12.3620 hc         1 3XU       0.015200
    120 H69         -0.5720    -0.8920    12.3610 hc         1 3XU       0.015200
    121 H70          1.4390     0.8770    13.8030 hc         1 3XU       0.014200
    122 H71          1.4390    -0.8920    13.8020 hc         1 3XU       0.014200
    123 H72         -0.8010    -0.8930    14.8490 hc         1 3XU       0.015700
    124 H73         -0.8020     0.8760    14.8510 hc         1 3XU       0.015700
    125 H74          1.2100    -0.8940    16.2890 hc         1 3XU       0.026700
    126 H75          1.2090     0.8750    16.2900 hc         1 3XU       0.026700
    127 H76         -1.2450     0.6580    17.3570 ha         1 3XU       0.102000
    128 H77         -1.0040    -0.9130    19.1420 ha         1 3XU       0.102000
    129 H78          1.6070    -1.5430    17.6050 hc         1 3XU       0.026700
    130 H79          0.5550    -2.8580    18.1460 hc         1 3XU       0.026700
    131 H80          0.8140    -2.1030    20.4870 hc         1 3XU       0.015700
    132 H81          1.8660    -0.7870    19.9460 hc         1 3XU       0.015700
    133 H82          2.4060    -3.7550    19.5630 hc         1 3XU       0.014200
    134 H83          3.4580    -2.4390    19.0230 hc         1 3XU       0.014200
    135 H84          3.7170    -1.6850    21.3630 hc         1 3XU       0.014700
    136 H85          2.6660    -3.0010    21.9040 hc         1 3XU       0.014700
    137 H86          5.3100    -3.3360    20.4400 hc         1 3XU       0.014700
    138 H87          4.2580    -4.6520    20.9800 hc         1 3XU       0.014700
    139 H88          4.5170    -3.8980    23.3210 hc         1 3XU       0.014700
    140 H89          5.5690    -2.5830    22.7810 hc         1 3XU       0.014700
    141 H90          7.1610    -4.2350    21.8580 hc         1 3XU       0.011700
    142 H91          6.1090    -5.5500    22.3990 hc         1 3XU       0.011700
    143 H92          6.3700    -4.8020    24.7390 hc         1 3XU       0.000033
    144 H93          7.9440    -5.1550    24.0130 hc         1 3XU       0.000033
    145 H94          7.4130    -3.4780    24.2020 hc         1 3XU       0.000033
    146 H51          2.5880     0.8850     1.3630 hc         1 3XU       0.022200
    147 H53          0.3480     0.8840     2.4120 hc         1 3XU       0.031700
    148 O2           1.9750     2.1780    -3.0720 os         1 3XU      -0.495200
    149 C2           2.1800    -3.0050    -3.9950 c2         1 3XU      -0.125200
@<TRIPOS>BOND
     1     1    31 2   
     2     2    15 1   
     3     2    31 1   
     4     2    55 1   
     5     3    16 1   
     6     3    56 1   
     7     3   149 2   
     8     4     5 1   
     9     5     6 1   
    10     5     7 1   
    11     5   148 1   
    12     7     8 1   
    13     8     9 1   
    14     8    57 1   
    15     8    58 1   
    16     9    10 1   
    17     9    59 1   
    18     9    60 1   
    19    10    11 1   
    20    10    12 1   
    21    10    13 1   
    22    11    61 1   
    23    11    62 1   
    24    11    63 1   
    25    12    64 1   
    26    12    65 1   
    27    12    66 1   
    28    13    67 1   
    29    13    68 1   
    30    13    69 1   
    31    14    15 1   
    32    14    70 1   
    33    14    71 1   
    34    14   148 1   
    35    15    16 1   
    36    15    72 1   
    37    16    17 1   
    38    16    73 1   
    39    17    74 1   
    40    18    19 1   
    41    18    76 1   
    42    18    77 1   
    43    18   149 1   
    44    19    20 1   
    45    19    78 1   
    46    19    79 1   
    47    20    21 1   
    48    20    80 1   
    49    20    81 1   
    50    21    22 1   
    51    21    82 1   
    52    21    83 1   
    53    22    23 1   
    54    22    84 1   
    55    22    85 1   
    56    23    24 1   
    57    23    86 1   
    58    23    87 1   
    59    24    25 1   
    60    24    88 1   
    61    24    89 1   
    62    25    26 1   
    63    25    90 1   
    64    25    91 1   
    65    26    27 1   
    66    26    92 1   
    67    26    93 1   
    68    27    28 1   
    69    27    94 1   
    70    27    95 1   
    71    28    29 1   
    72    28    96 1   
    73    28    97 1   
    74    29    30 1   
    75    29    98 1   
    76    29    99 1   
    77    30   100 1   
    78    30   101 1   
    79    30   102 1   
    80    31    32 1   
    81    32    33 1   
    82    32   103 1   
    83    32   146 1   
    84    33    34 1   
    85    33   104 1   
    86    33   147 1   
    87    34    35 1   
    88    34   105 1   
    89    34   106 1   
    90    35    36 1   
    91    35   107 1   
    92    35   108 1   
    93    36    37 1   
    94    36   109 1   
    95    36   110 1   
    96    37    38 1   
    97    37   111 1   
    98    37   112 1   
    99    38    39 1   
   100    38   113 1   
   101    38   114 1   
   102    39    40 1   
   103    39   115 1   
   104    39   116 1   
   105    40    41 1   
   106    40   117 1   
   107    40   118 1   
   108    41    42 1   
   109    41   119 1   
   110    41   120 1   
   111    42    43 1   
   112    42   121 1   
   113    42   122 1   
   114    43    44 1   
   115    43   123 1   
   116    43   124 1   
   117    44    45 1   
   118    44   125 1   
   119    44   126 1   
   120    45    46 2   
   121    45   127 1   
   122    46    47 1   
   123    46   128 1   
   124    47    48 1   
   125    47   129 1   
   126    47   130 1   
   127    48    49 1   
   128    48   131 1   
   129    48   132 1   
   130    49    50 1   
   131    49   133 1   
   132    49   134 1   
   133    50    51 1   
   134    50   135 1   
   135    50   136 1   
   136    51    52 1   
   137    51   137 1   
   138    51   138 1   
   139    52    53 1   
   140    52   139 1   
   141    52   140 1   
   142    53    54 1   
   143    53   141 1   
   144    53   142 1   
   145    54   143 1   
   146    54   144 1   
   147    54   145 1   
   148    75   149 1   
@<TRIPOS>SUBSTRUCTURE
     1 3XU         1 TEMP              0 ****  ****    0 ROOT
