@<TRIPOS>MOLECULE
molecule
   53    56     1     0     0
SMALL
bcc


@<TRIPOS>ATOM
      1 C2           0.0000     0.0000     0.0000 ca         1 3XV       0.721900
      2 C4           2.0000     0.0000     1.1450 ca         1 3XV       0.443800
      3 C5           1.3020    -0.0010     2.3470 ca         1 3XV      -0.387600
      4 C6          -0.0960     0.0050     2.3000 ca         1 3XV       0.723200
      5 CAT          9.5770    -0.1140    -2.9630 c3         1 3XV       0.160800
      6 CAU          9.9550    -0.3400    -4.4270 c3         1 3XV      -0.032100
      7 CAV          9.3840     0.7610    -5.2830 ca         1 3XV      -0.063300
      8 CBB          9.8960     0.9390    -6.5590 ca         1 3XV      -0.128000
      9 CBA          9.3990     1.9360    -7.3770 ca         1 3XV      -0.126000
     10 CAZ          8.3860     2.7570    -6.9200 ca         1 3XV      -0.130000
     11 CAY          7.8760     2.5800    -5.6500 ca         1 3XV      -0.126000
     12 CAW          8.3750     1.5820    -4.8270 ca         1 3XV      -0.077300
     13 CAX          7.7930     1.4350    -3.4450 c3         1 3XV       0.205100
     14 NAS          8.1260     0.1200    -2.8870 n3         1 3XV      -0.715600
     15 CAR          7.6460    -0.0000    -1.5040 c3         1 3XV       0.155800
     16 CAB          6.1150     0.0000    -1.4930 c3         1 3XV       0.132100
     17 OAA          5.6350    -1.1670    -2.1630 oh         1 3XV      -0.585800
     18 CAC          5.6150    -0.0000    -0.0470 c3         1 3XV       0.095000
     19 NAD          4.1500    -0.0000    -0.0370 ns         1 3XV      -0.558900
     20 CAE          3.4840     0.0000     1.1350 c          1 3XV       0.574600
     21 OAF          4.0980     0.0000     2.1830 o          1 3XV      -0.607100
     22 N3           1.3150     0.0000     0.0000 nb         1 3XV      -0.786000
     23 N1          -0.7000     0.0040     1.1170 nb         1 3XV      -0.799000
     24 NAJ         -0.8390     0.0040     3.4690 nu         1 3XV      -0.884900
     25 CAK         -0.1610    -0.0020     4.7680 cy         1 3XV       0.161500
     26 CAL         -1.0070    -0.5980     5.9090 cy         1 3XV       0.099400
     27 OAM         -1.4490     0.7560     6.1370 oq         1 3XV      -0.412600
     28 CAN         -0.2720     1.3300     5.5340 cy         1 3XV       0.099400
     29 H1          -0.5250    -0.0000    -0.9480 h5         1 3XV       0.061100
     30 H2           1.8260    -0.0010     3.2950 ha         1 3XV       0.168000
     31 H4          10.0950     0.7650    -2.5970 h1         1 3XV       0.040700
     32 H5          11.0350    -0.3220    -4.5140 hc         1 3XV       0.061200
     33 H6           9.5360    -1.2850    -4.7520 hc         1 3XV       0.061200
     34 H7          10.6900     0.2950    -6.9150 ha         1 3XV       0.130000
     35 H8           9.8020     2.0720    -8.3730 ha         1 3XV       0.129000
     36 H9           7.9930     3.5400    -7.5580 ha         1 3XV       0.129000
     37 H10          7.0810     3.2250    -5.2930 ha         1 3XV       0.127000
     38 H11          8.1980     2.2080    -2.8040 h1         1 3XV       0.041200
     39 H12          6.7160     1.5360    -3.5000 h1         1 3XV       0.041200
     40 H14          8.0110     0.8360    -0.9200 h1         1 3XV       0.047700
     41 H15          8.0090    -0.9260    -1.0740 h1         1 3XV       0.047700
     42 H16          5.7500     0.8850    -2.0010 h1         1 3XV       0.035700
     43 H17          5.0320    -0.9140    -2.8420 ho         1 3XV       0.404000
     44 H18          5.9800    -0.8850     0.4610 h1         1 3XV       0.062200
     45 H19          5.9800     0.8840     0.4620 h1         1 3XV       0.062200
     46 H20          3.6440     0.0260    -0.9000 hn         1 3XV       0.334500
     47 H21         -1.8390    -0.0080     3.4270 hn         1 3XV       0.465800
     48 H22          0.8500    -0.3920     4.7460 h1         1 3XV       0.076700
     49 H23         -0.4100    -0.9950     6.7210 h1         1 3XV       0.070700
     50 H24         -1.7970    -1.2520     5.5580 h1         1 3XV       0.070700
     51 H25         -0.4900     2.1750     4.8920 h1         1 3XV       0.070700
     52 H26          0.5360     1.4860     6.2380 h1         1 3XV       0.070700
     53 H3           9.8210    -1.0030    -2.3950 h1         1 3XV       0.040700
@<TRIPOS>BOND
     1    21    20 2   
     2    28    25 1   
     3    28    27 1   
     4     3     4 ar  
     5     3     2 ar  
     6    24     4 1   
     7    24    25 1   
     8    20     2 1   
     9    20    19 1   
    10     4    23 ar  
    11     2    22 ar  
    12    25    26 1   
    13    18    19 1   
    14    18    16 1   
    15    17    16 1   
    16     5     6 1   
    17     5    14 1   
    18    15    16 1   
    19    15    14 1   
    20    27    26 1   
    21     6     7 1   
    22    23     1 ar  
    23    22     1 ar  
    24    14    13 1   
    25     7     8 ar  
    26     7    12 ar  
    27    13    12 1   
    28     8     9 ar  
    29    12    11 ar  
    30     9    10 ar  
    31    11    10 ar  
    32     1    29 1   
    33     3    30 1   
    34     5    53 1   
    35     5    31 1   
    36     6    32 1   
    37     6    33 1   
    38     8    34 1   
    39     9    35 1   
    40    10    36 1   
    41    11    37 1   
    42    13    38 1   
    43    13    39 1   
    44    15    40 1   
    45    15    41 1   
    46    16    42 1   
    47    17    43 1   
    48    18    44 1   
    49    18    45 1   
    50    19    46 1   
    51    24    47 1   
    52    25    48 1   
    53    26    49 1   
    54    26    50 1   
    55    28    51 1   
    56    28    52 1   
@<TRIPOS>SUBSTRUCTURE
     1 3XV         1 TEMP              0 ****  ****    0 ROOT
