@<TRIPOS>MOLECULE
3XV
   53    56     1     0     0
SMALL
bcc


@<TRIPOS>ATOM
      1 C2           0.0000     0.0000     0.0000 ca         1 3XV       0.676900
      2 C4           2.0000     0.0000     1.1450 ca         1 3XV       0.403800
      3 C5           1.3020    -0.0010     2.3470 ca         1 3XV      -0.369600
      4 C6          -0.0960     0.0050     2.3000 ca         1 3XV       0.534200
      5 CAT          9.5770    -0.1140    -2.9630 c3         1 3XV       0.150800
      6 CAU          9.9550    -0.3400    -4.4270 c3         1 3XV       0.033900
      7 CAV          9.3840     0.7610    -5.2830 ca         1 3XV      -0.069300
      8 CBB          9.8960     0.9390    -6.5590 ca         1 3XV      -0.102000
      9 CBA          9.3990     1.9360    -7.3770 ca         1 3XV      -0.099000
     10 CAZ          8.3860     2.7570    -6.9200 ca         1 3XV      -0.104000
     11 CAY          7.8760     2.5800    -5.6500 ca         1 3XV      -0.100000
     12 CAW          8.3750     1.5820    -4.8270 ca         1 3XV      -0.084300
     13 CAX          7.7930     1.4350    -3.4450 c3         1 3XV       0.206100
     14 NAS          8.1260     0.1200    -2.8870 n3         1 3XV      -0.529600
     15 CAR          7.6460    -0.0000    -1.5040 c3         1 3XV       0.140800
     16 CAB          6.1150     0.0000    -1.4930 c3         1 3XV       0.169100
     17 OAA          5.6350    -1.1670    -2.1630 oh         1 3XV      -0.567800
     18 CAC          5.6150    -0.0000    -0.0470 c3         1 3XV       0.022000
     19 NAD          4.1500    -0.0000    -0.0370 ns         1 3XV      -0.159900
     20 CAE          3.4840     0.0000     1.1350 c          1 3XV       0.480600
     21 OAF          4.0980     0.0000     2.1830 o          1 3XV      -0.655100
     22 N3           1.3150     0.0000     0.0000 nb         1 3XV      -0.690000
     23 N1          -0.7000     0.0040     1.1170 nb         1 3XV      -0.693000
     24 NAJ         -0.8390     0.0040     3.4690 nu         1 3XV      -0.450900
     25 CAK         -0.1610    -0.0020     4.7680 cy         1 3XV       0.023500
     26 CAL         -1.0070    -0.5980     5.9090 cy         1 3XV       0.194400
     27 OAM         -1.4490     0.7560     6.1370 oq         1 3XV      -0.408600
     28 CAN         -0.2720     1.3300     5.5340 cy         1 3XV       0.194400
     29 H1          -0.5250    -0.0000    -0.9480 h5         1 3XV      -0.002900
     30 H2           1.8260    -0.0010     3.2950 ha         1 3XV       0.154000
     31 H4          10.0950     0.7650    -2.5970 h1         1 3XV       0.014200
     32 H5          11.0350    -0.3220    -4.5140 hc         1 3XV       0.028200
     33 H6           9.5360    -1.2850    -4.7520 hc         1 3XV       0.028200
     34 H7          10.6900     0.2950    -6.9150 ha         1 3XV       0.105000
     35 H8           9.8020     2.0720    -8.3730 ha         1 3XV       0.102000
     36 H9           7.9930     3.5400    -7.5580 ha         1 3XV       0.102000
     37 H10          7.0810     3.2250    -5.2930 ha         1 3XV       0.102000
     38 H11          8.1980     2.2080    -2.8040 h1         1 3XV       0.014700
     39 H12          6.7160     1.5360    -3.5000 h1         1 3XV       0.014700
     40 H14          8.0110     0.8360    -0.9200 h1         1 3XV       0.021200
     41 H15          8.0090    -0.9260    -1.0740 h1         1 3XV       0.021200
     42 H16          5.7500     0.8850    -2.0010 h1         1 3XV       0.006700
     43 H17          5.0320    -0.9140    -2.8420 ho         1 3XV       0.391000
     44 H18          5.9800    -0.8850     0.4610 h1         1 3XV       0.035200
     45 H19          5.9800     0.8840     0.4620 h1         1 3XV       0.035200
     46 H20          3.6440     0.0260    -0.9000 hn         1 3XV       0.190500
     47 H21         -1.8390    -0.0080     3.4270 hn         1 3XV       0.307800
     48 H22          0.8500    -0.3920     4.7460 h1         1 3XV       0.061700
     49 H23         -0.4100    -0.9950     6.7210 h1         1 3XV       0.026450
     50 H24         -1.7970    -1.2520     5.5580 h1         1 3XV       0.026450
     51 H25         -0.4900     2.1750     4.8920 h1         1 3XV       0.026450
     52 H26          0.5360     1.4860     6.2380 h1         1 3XV       0.026450
     53 H3           9.8210    -1.0030    -2.3950 h1         1 3XV       0.014200
@<TRIPOS>BOND
     1     1    22 ar  
     2     1    23 ar  
     3     1    29 1   
     4     2     3 ar  
     5     2    20 1   
     6     2    22 ar  
     7     3     4 ar  
     8     3    30 1   
     9     4    23 ar  
    10     4    24 1   
    11     5     6 1   
    12     5    14 1   
    13     5    31 1   
    14     5    53 1   
    15     6     7 1   
    16     6    32 1   
    17     6    33 1   
    18     7     8 ar  
    19     7    12 ar  
    20     8     9 ar  
    21     8    34 1   
    22     9    10 ar  
    23     9    35 1   
    24    10    11 ar  
    25    10    36 1   
    26    11    12 ar  
    27    11    37 1   
    28    12    13 1   
    29    13    14 1   
    30    13    38 1   
    31    13    39 1   
    32    14    15 1   
    33    15    16 1   
    34    15    40 1   
    35    15    41 1   
    36    16    17 1   
    37    16    18 1   
    38    16    42 1   
    39    17    43 1   
    40    18    19 1   
    41    18    44 1   
    42    18    45 1   
    43    19    20 1   
    44    19    46 1   
    45    20    21 2   
    46    24    25 1   
    47    24    47 1   
    48    25    26 1   
    49    25    28 1   
    50    25    48 1   
    51    26    27 1   
    52    26    49 1   
    53    26    50 1   
    54    27    28 1   
    55    28    51 1   
    56    28    52 1   
@<TRIPOS>SUBSTRUCTURE
     1 3XV         1 TEMP              0 ****  ****    0 ROOT
