@<TRIPOS>MOLECULE
molecule
   67    72     1     0     0
SMALL
bcc


@<TRIPOS>ATOM
      1 C4           0.0000     0.0000     0.0000 ca         1 3XW       0.549600
      2 C5           1.3970     0.0000     0.0000 ca         1 3XW      -0.392400
      3 C6           2.0530     0.0000     1.2570 ca         1 3XW       0.773200
      4 N1           1.3220     0.0000     2.3620 nb         1 3XW      -0.827000
      5 N3          -0.6510    -0.0000     1.1690 nb         1 3XW      -0.762000
      6 FAC          0.0590    -1.8980    -4.1720 f          1 3XW      -0.216967
      7 CBN          1.4740    -1.4610    -4.2700 c3         1 3XW       0.602900
      8 FAD          2.4890    -2.1180    -3.5640 f          1 3XW      -0.216967
      9 FAE          1.7780    -1.4660    -5.6360 f          1 3XW      -0.216967
     10 CBD          1.0390    -0.0100    -2.3070 cc         1 3XW      -0.095600
     11 SAZ         -0.5900    -0.0080    -1.6560 ss         1 3XW      -0.105900
     12 CAM          1.9410     0.0000    -1.3460 cd         1 3XW      -0.077200
     13 C2           0.0020     0.0000     2.3080 ca         1 3XW       0.739900
     14 NAX          3.4340    -0.0000     1.3300 nu         1 3XW      -0.890900
     15 CBK          4.1000     0.0000     2.6350 c3         1 3XW       0.235500
     16 CAO          5.4970    -0.6100     2.4970 c3         1 3XW      -0.089400
     17 CAQ          6.2100    -0.5510     3.8500 c3         1 3XW       0.157300
     18 CAN          4.2280     1.4390     3.1440 c3         1 3XW      -0.089400
     19 CAP          4.9770     1.4380     4.4790 c3         1 3XW       0.157300
     20 NBL          6.3080     0.8450     4.2930 n3         1 3XW      -0.712600
     21 CAR          7.1070     0.9530     5.5210 c3         1 3XW       0.209100
     22 CBE          7.5160     2.3880     5.7290 ca         1 3XW      -0.120300
     23 CBB          8.4900     2.9350     4.9430 ca         1 3XW       0.006700
     24 CAA          9.1510     2.1040     3.8730 c3         1 3XW      -0.048800
     25 CAH          6.8960     3.1450     6.7150 ca         1 3XW      -0.089000
     26 CAI          7.2550     4.4590     6.9220 ca         1 3XW      -0.152000
     27 CBJ          8.2490     5.0360     6.1370 ca         1 3XW      -0.013200
     28 CBG          8.8730     4.2680     5.1340 ca         1 3XW      -0.118800
     29 CAL          9.8230     5.1070     4.5040 cc         1 3XW      -0.124200
     30 CBC          9.7660     6.3240     5.1070 cd         1 3XW       0.025200
     31 CAF         10.5690     7.4590     4.7620 ch         1 3XW       0.228500
     32 NAB         11.2200     8.3470     4.4820 n1         1 3XW      -0.365800
     33 NBM          8.8130     6.2910     6.1040 na         1 3XW      -0.045400
     34 CAS          8.4520     7.4110     6.9770 c3         1 3XW       0.131600
     35 CBA          9.3100     7.3780     8.2150 cc         1 3XW      -0.353600
     36 CAJ         10.5070     7.9910     8.3700 cd         1 3XW      -0.085300
     37 NAU         10.9490     7.7190     9.6170 na         1 3XW      -0.037600
     38 NAY          9.9920     6.9150    10.2480 nd         1 3XW      -0.504800
     39 CAK          9.0080     6.7170     9.4090 cc         1 3XW       0.353200
     40 H1           2.2570     0.5300    -4.0610 hc         1 3XW       0.088200
     41 H2           0.4970     0.4530    -4.2260 hc         1 3XW       0.088200
     42 H4           2.9920     0.0050    -1.6050 ha         1 3XW       0.146000
     43 H5          -0.5770     0.0000     3.2240 h5         1 3XW       0.062100
     44 H6           3.9790    -0.0920     0.4950 hn         1 3XW       0.449800
     45 H7           3.5210    -0.5820     3.3420 h1         1 3XW       0.078700
     46 H8           6.0270    -0.0980     1.7030 hc         1 3XW       0.054200
     47 H9           5.3980    -1.6580     2.2420 hc         1 3XW       0.054200
     48 H10          7.2350    -0.8760     3.7200 h1         1 3XW       0.041200
     49 H11          5.7090    -1.2190     4.5400 h1         1 3XW       0.041200
     50 H12          4.7010     2.0410     2.3780 hc         1 3XW       0.054200
     51 H13          3.2370     1.8290     3.3440 hc         1 3XW       0.054200
     52 H14          5.1650     2.4630     4.7750 h1         1 3XW       0.041200
     53 H15          4.3580     0.9580     5.2270 h1         1 3XW       0.041200
     54 H17          6.4570     0.8740     6.3830 h1         1 3XW       0.040700
     55 H18          7.8390     0.1550     5.5460 h1         1 3XW       0.040700
     56 H19          8.9660     2.5510     2.9040 hc         1 3XW       0.047700
     57 H20          8.7440     1.1010     3.8920 hc         1 3XW       0.047700
     58 H21         10.2190     2.0650     4.0540 hc         1 3XW       0.047700
     59 H22          6.1940     2.6770     7.3950 ha         1 3XW       0.132000
     60 H23          6.7650     5.0400     7.6940 ha         1 3XW       0.127000
     61 H24         10.4520     4.8380     3.6640 ha         1 3XW       0.160000
     62 H25          7.4460     7.2680     7.3510 h1         1 3XW       0.068700
     63 H26          8.5010     8.3360     6.4160 h1         1 3XW       0.068700
     64 H27         11.0320     8.5640     7.6150 h4         1 3XW       0.178000
     65 H28         11.8090     8.0380    10.0180 hn         1 3XW       0.333700
     66 H29          8.1290     6.1110     9.5970 h4         1 3XW       0.050100
     67 CAT          1.3650    -0.0160    -3.7790 c3         1 3XW      -0.056200
@<TRIPOS>BOND
     1     1     2 ar  
     2     1     5 ar  
     3     1    11 1   
     4     2     3 ar  
     5     2    12 1   
     6     3     4 ar  
     7     3    14 1   
     8     4    13 ar  
     9     5    13 ar  
    10     6     7 1   
    11     7     8 1   
    12     7     9 1   
    13     7    67 1   
    14    67    10 1   
    15    10    11 1   
    16    10    12 2   
    17    14    15 1   
    18    15    16 1   
    19    15    18 1   
    20    16    17 1   
    21    17    20 1   
    22    18    19 1   
    23    19    20 1   
    24    20    21 1   
    25    21    22 1   
    26    22    23 ar  
    27    22    25 ar  
    28    23    24 1   
    29    23    28 ar  
    30    25    26 ar  
    31    26    27 ar  
    32    27    28 ar  
    33    27    33 1   
    34    28    29 1   
    35    29    30 2   
    36    30    31 1   
    37    30    33 1   
    38    31    32 3   
    39    33    34 1   
    40    34    35 1   
    41    35    36 2   
    42    35    39 1   
    43    36    37 1   
    44    37    38 1   
    45    38    39 2   
    46    67    40 1   
    47    67    41 1   
    48    12    42 1   
    49    13    43 1   
    50    14    44 1   
    51    15    45 1   
    52    16    46 1   
    53    16    47 1   
    54    17    48 1   
    55    17    49 1   
    56    18    50 1   
    57    18    51 1   
    58    19    52 1   
    59    19    53 1   
    60    21    54 1   
    61    21    55 1   
    62    24    56 1   
    63    24    57 1   
    64    24    58 1   
    65    25    59 1   
    66    26    60 1   
    67    29    61 1   
    68    34    62 1   
    69    34    63 1   
    70    36    64 1   
    71    37    65 1   
    72    39    66 1   
@<TRIPOS>SUBSTRUCTURE
     1 3XW         1 TEMP              0 ****  ****    0 ROOT
