@<TRIPOS>MOLECULE
3XX
   18    18     1     0     0
SMALL
bcc


@<TRIPOS>ATOM
      1 OAC        -0.0870    0.4480    0.1650 o         1 3XX     -0.521100
      2 CAI         1.1270    0.2570    0.1240 c         1 3XX      0.556500
      3 CAH         2.0840    0.2850    1.2590 cc        1 3XX     -0.115100
      4 OAD         1.7650    0.5340    2.5640 oh        1 3XX     -0.467100
      5 CAG         3.3390    0.0220    0.7900 cd        1 3XX      0.085900
      6 CAB         4.6490   -0.0770    1.4380 c3        1 3XX     -0.041900
      7 OAF         3.3320   -0.1900   -0.6030 os        1 3XX     -0.244200
      8 CAJ         1.9890   -0.0540   -1.0480 cc        1 3XX     -0.066100
      9 CAE         1.7170   -0.2120   -2.3500 c2        1 3XX     -0.075200
     10 CAA         0.3680   -0.0960   -2.9300 c3        1 3XX     -0.083900
     11 H1          0.8040    0.6830    2.5810 ho        1 3XX      0.435000
     12 H2          5.0780   -1.1000    1.2850 hc        1 3XX      0.068033
     13 H3          4.5370    0.1170    2.5340 hc        1 3XX      0.068033
     14 H4          5.3560    0.6700    0.9980 hc        1 3XX      0.068033
     15 H5          2.5370   -0.4450   -3.0530 ha        1 3XX      0.144000
     16 H6         -0.4050    0.1400   -2.1550 hc        1 3XX      0.063367
     17 H7          0.0900   -1.0580   -3.4310 hc        1 3XX      0.063367
     18 H8          0.3590    0.7150   -3.7020 hc        1 3XX      0.063367
@<TRIPOS>BOND
     1    1    2 2   
     2    2    3 1   
     3    2    8 1   
     4    3    4 1   
     5    3    5 2   
     6    4   11 1   
     7    5    6 1   
     8    5    7 1   
     9    6   12 1   
    10    6   13 1   
    11    6   14 1   
    12    7    8 1   
    13    8    9 2   
    14    9   10 1   
    15    9   15 1   
    16   10   16 1   
    17   10   17 1   
    18   10   18 1   
@<TRIPOS>SUBSTRUCTURE
     1 3XX         1 TEMP              0 ****  ****    0 ROOT
