@<TRIPOS>MOLECULE
molecule
   18    18     1     0     0
SMALL
bcc


@<TRIPOS>ATOM
      1 OAC          0.0000     0.0000     0.0000 o          1 3XX      -0.516100
      2 CAI          1.2190     0.0000     0.0000 c          1 3XX       0.530500
      3 CAH          2.0860     0.0000     1.1270 cc         1 3XX      -0.151100
      4 OAD          1.7060     0.0000     2.4350 oh         1 3XX      -0.472100
      5 CAG          3.3510    -0.0000     0.6670 cd         1 3XX       0.108900
      6 CAB          4.5740    -0.0010     1.5470 c3         1 3XX      -0.024900
      7 OAF          3.3840    -0.0010    -0.6750 os         1 3XX      -0.200200
      8 CAJ          2.1200    -0.0050    -1.1730 cc         1 3XX      -0.074100
      9 CAE          1.7630    -0.0130    -2.4630 c2         1 3XX      -0.082200
     10 CAA          0.3050    -0.0140    -2.8410 c3         1 3XX      -0.055900
     11 H1           1.1060     0.7120     2.5880 ho         1 3XX       0.421000
     12 H2           4.5980     0.9100     2.1330 hc         1 3XX       0.065367
     13 H3           5.4630    -0.0570     0.9300 hc         1 3XX       0.065367
     14 H4           4.5410    -0.8560     2.2110 hc         1 3XX       0.065367
     15 H5           2.5230    -0.0160    -3.2350 ha         1 3XX       0.143000
     16 H6           0.2120    -0.0190    -3.9200 hc         1 3XX       0.059033
     17 H7          -0.1730    -0.8960    -2.4330 hc         1 3XX       0.059033
     18 H8          -0.1720     0.8730    -2.4410 hc         1 3XX       0.059033
@<TRIPOS>BOND
     1     6     5 1
     2     4     3 1
     3     5     3 2
     4     5     7 1
     5     3     2 1
     6     2     1 2
     7     2     8 1
     8     7     8 1
     9     8     9 2
    10     9    10 1
    11     4    11 1
    12     6    12 1
    13     6    13 1
    14     6    14 1
    15     9    15 1
    16    10    16 1
    17    10    17 1
    18    10    18 1
@<TRIPOS>SUBSTRUCTURE
     1 3XX         1 TEMP              0 ****  ****    0 ROOT
