@<TRIPOS>MOLECULE
molecule
   54    58     1     0     0
SMALL
bcc


@<TRIPOS>ATOM
      1 C4           0.0000     0.0000     0.0000 ca         1 3XY       0.547600
      2 C5           1.3970     0.0000     0.0000 ca         1 3XY      -0.407400
      3 C6           2.0520     0.0000     1.2580 ca         1 3XY       0.774200
      4 N1           1.3200    -0.0000     2.3630 nb         1 3XY      -0.829000
      5 N3          -0.6520    -0.0040     1.1690 nb         1 3XY      -0.765000
      6 FAB          0.2600    -2.1010    -4.0680 f          1 3XY      -0.226300
      7 CBG          1.4770    -1.4430    -4.2760 c3         1 3XY       0.597900
      8 FAC          2.4910    -2.1030    -3.5720 f          1 3XY      -0.226300
      9 FAD          1.7810    -1.4430    -5.6400 f          1 3XY      -0.226300
     10 CAY          1.0390     0.0000    -2.3060 cc         1 3XY      -0.056600
     11 SAV         -0.5890    -0.0000    -1.6570 ss         1 3XY      -0.098900
     12 CAK          1.9420     0.0010    -1.3440 cd         1 3XY      -0.069200
     13 C2          -0.0000    -0.0000     2.3080 ca         1 3XY       0.739900
     14 NAT          3.4340    -0.0010     1.3320 nu         1 3XY      -0.890900
     15 CBE          4.0980    -0.0010     2.6380 c3         1 3XY       0.258500
     16 CAM          5.4950    -0.6110     2.5000 c3         1 3XY      -0.128900
     17 CAO          6.2070    -0.5540     3.8550 c3         1 3XY       0.114800
     18 CAL          4.2260     1.4370     3.1470 c3         1 3XY      -0.128900
     19 CAN          4.9740     1.4360     4.4820 c3         1 3XY       0.114800
     20 NBF          6.3050     0.8420     4.2980 n3         1 3XY      -0.695600
     21 CAP          7.1040     0.9500     5.5260 c3         1 3XY       0.204100
     22 CAW          8.5300     0.5610     5.2330 ca         1 3XY      -0.064300
     23 CAI          8.9150    -0.7430     5.3610 ca         1 3XY      -0.077000
     24 CBA         10.2390    -1.1080     5.0880 ca         1 3XY      -0.155800
     25 CAJ         10.9350    -2.3400     5.1250 cc         1 3XY      -0.147200
     26 CAX         12.2220    -2.1000     4.7590 cd         1 3XY       0.084200
     27 CAE         13.2560    -3.0860     4.6670 ch         1 3XY       0.218500
     28 NAA         14.0640    -3.8820     4.5870 n1         1 3XY      -0.343800
     29 NAU         12.3720    -0.7540     4.4890 na         1 3XY      -0.162400
     30 CBB         11.1640    -0.1260     4.6850 ca         1 3XY      -0.069200
     31 CAH         10.7490     1.1970     4.5630 ca         1 3XY      -0.151000
     32 CAG          9.4390     1.5300     4.8320 ca         1 3XY      -0.074000
     33 H1           2.2760     0.4480    -4.1580 hc         1 3XY       0.082700
     34 H2           0.7280     0.4150    -4.5470 hc         1 3XY       0.082700
     35 H3           3.0240     0.0390    -1.3710 ha         1 3XY       0.148000
     36 H4          -0.6210    -0.0850     3.1920 h5         1 3XY       0.062100
     37 H5           3.9830     0.0280     0.4960 hn         1 3XY       0.450800
     38 H6           3.5190    -0.5830     3.3440 h1         1 3XY       0.081700
     39 H7           5.7170    -1.6680     2.4130 hc         1 3XY       0.063200
     40 H8           6.1170    -0.0790     1.7900 hc         1 3XY       0.063200
     41 H9           5.5900    -1.2670     4.3880 h1         1 3XY       0.056200
     42 H10          7.2230    -0.7430     3.5300 h1         1 3XY       0.056200
     43 H11          4.7210     2.1890     2.5440 hc         1 3XY       0.063200
     44 H12          3.1900     1.4740     3.4600 hc         1 3XY       0.063200
     45 H13          4.8850     2.5150     4.4870 h1         1 3XY       0.056200
     46 H14          4.1430     1.1590     5.1190 h1         1 3XY       0.056200
     47 H16          6.8300     1.8990     5.9720 h1         1 3XY       0.050700
     48 H17          6.5970     0.1040     5.9750 h1         1 3XY       0.050700
     49 H18          8.4010    -1.6390     5.6870 ha         1 3XY       0.138000
     50 H19         10.2590    -2.9920     5.6660 ha         1 3XY       0.178000
     51 H20         13.0590    -0.1690     4.0550 hn         1 3XY       0.311700
     52 H21         11.5360     1.8600     4.2260 ha         1 3XY       0.128000
     53 H22          9.2350     2.4910     4.3750 ha         1 3XY       0.146000
     54 CAQ          1.3670    -0.0010    -3.7770 c3         1 3XY      -0.053200
@<TRIPOS>BOND
     1    19    18 1
     2    19    20 1
     3    18    15 1
     4    21    20 1
     5    21    22 1
     6    20    17 1
     7     9     7 1
     8    22    32 ar
     9    22    23 ar
    10    32    31 ar
    11    15    14 1
    12    15    16 1
    13     4    13 ar
    14     4     3 ar
    15    23    24 ar
    16    14     3 1
    17     8     7 1
    18    13     5 ar
    19     3     2 ar
    20    31    30 ar
    21    17    16 1
    22     7     6 1
    23     7    54 1
    24     5     1 ar
    25     2     1 ar
    26     2    12 1
    27     1    11 1
    28    24    30 ar
    29    24    25 1
    30    12    10 2
    31    30    29 1
    32    10    11 1
    33    10    54 1
    34    25    26 2
    35    29    26 1
    36    26    27 1
    37    27    28 3
    38    54    33 1
    39    54    34 1
    40    12    35 1
    41    13    36 1
    42    14    37 1
    43    15    38 1
    44    16    39 1
    45    16    40 1
    46    17    41 1
    47    17    42 1
    48    18    43 1
    49    18    44 1
    50    19    45 1
    51    19    46 1
    52    21    47 1
    53    21    48 1
    54    23    49 1
    55    25    50 1
    56    29    51 1
    57    31    52 1
    58    32    53 1
@<TRIPOS>SUBSTRUCTURE
     1 3XY         1 TEMP              0 ****  ****    0 ROOT
