@<TRIPOS>MOLECULE
3XY
   54    58     1     0     0
SMALL
bcc


@<TRIPOS>ATOM
      1 C4           0.0000     0.0000     0.0000 ca         1 3XY       0.574600
      2 C5           1.3970     0.0000     0.0000 ca         1 3XY      -0.415400
      3 C6           2.0520     0.0000     1.2580 ca         1 3XY       0.594200
      4 N1           1.3200    -0.0000     2.3630 nb         1 3XY      -0.725000
      5 N3          -0.6520    -0.0040     1.1690 nb         1 3XY      -0.654000
      6 FAB          0.2600    -2.1010    -4.0680 f          1 3XY      -0.207633
      7 CBG          1.4770    -1.4430    -4.2760 c3         1 3XY       0.551900
      8 FAC          2.4910    -2.1030    -3.5720 f          1 3XY      -0.207633
      9 FAD          1.7810    -1.4430    -5.6400 f          1 3XY      -0.207633
     10 CAY          1.0390     0.0000    -2.3060 cc         1 3XY      -0.002600
     11 SAV         -0.5890    -0.0000    -1.6570 ss         1 3XY      -0.254900
     12 CAK          1.9420     0.0010    -1.3440 cd         1 3XY      -0.035200
     13 C2          -0.0000    -0.0000     2.3080 ca         1 3XY       0.694900
     14 NAT          3.4340    -0.0010     1.3320 nu         1 3XY      -0.467900
     15 CBE          4.0980    -0.0010     2.6380 c3         1 3XY       0.151500
     16 CAM          5.4950    -0.6110     2.5000 c3         1 3XY      -0.090400
     17 CAO          6.2070    -0.5540     3.8550 c3         1 3XY       0.098300
     18 CAL          4.2260     1.4370     3.1470 c3         1 3XY      -0.090400
     19 CAN          4.9740     1.4360     4.4820 c3         1 3XY       0.098300
     20 NBF          6.3050     0.8420     4.2980 n3         1 3XY      -0.508600
     21 CAP          7.1040     0.9500     5.5260 c3         1 3XY       0.206100
     22 CAW          8.5300     0.5610     5.2330 ca         1 3XY      -0.064300
     23 CAI          8.9150    -0.7430     5.3610 ca         1 3XY      -0.046000
     24 CBA         10.2390    -1.1080     5.0880 ca         1 3XY      -0.160800
     25 CAJ         10.9350    -2.3400     5.1250 cc         1 3XY      -0.126200
     26 CAX         12.2220    -2.1000     4.7590 cd         1 3XY      -0.054800
     27 CAE         13.2560    -3.0860     4.6670 ch         1 3XY       0.210500
     28 NAA         14.0640    -3.8820     4.5870 n1         1 3XY      -0.367800
     29 NAU         12.3720    -0.7540     4.4890 na         1 3XY       0.373600
     30 CBB         11.1640    -0.1260     4.6850 ca         1 3XY      -0.256200
     31 CAH         10.7490     1.1970     4.5630 ca         1 3XY      -0.106000
     32 CAG          9.4390     1.5300     4.8320 ca         1 3XY      -0.053000
     33 H1           2.2760     0.4480    -4.1580 hc         1 3XY       0.048700
     34 H2           0.7280     0.4150    -4.5470 hc         1 3XY       0.048700
     35 H3           3.0240     0.0390    -1.3710 ha         1 3XY       0.121000
     36 H4          -0.6210    -0.0850     3.1920 h5         1 3XY      -0.000900
     37 H5           3.9830     0.0280     0.4960 hn         1 3XY       0.298800
     38 H6           3.5190    -0.5830     3.3440 h1         1 3XY       0.058700
     39 H7           5.7170    -1.6680     2.4130 hc         1 3XY       0.040450
     40 H8           6.1170    -0.0790     1.7900 hc         1 3XY       0.040450
     41 H9           5.5900    -1.2670     4.3880 h1         1 3XY       0.035700
     42 H10          7.2230    -0.7430     3.5300 h1         1 3XY       0.035700
     43 H11          4.7210     2.1890     2.5440 hc         1 3XY       0.040450
     44 H12          3.1900     1.4740     3.4600 hc         1 3XY       0.040450
     45 H13          4.8850     2.5150     4.4870 h1         1 3XY       0.035700
     46 H14          4.1430     1.1590     5.1190 h1         1 3XY       0.035700
     47 H16          6.8300     1.8990     5.9720 h1         1 3XY       0.021200
     48 H17          6.5970     0.1040     5.9750 h1         1 3XY       0.021200
     49 H18          8.4010    -1.6390     5.6870 ha         1 3XY       0.113000
     50 H19         10.2590    -2.9920     5.6660 ha         1 3XY       0.151000
     51 H20         13.0590    -0.1690     4.0550 hn         1 3XY       0.127700
     52 H21         11.5360     1.8600     4.2260 ha         1 3XY       0.101000
     53 H22          9.2350     2.4910     4.3750 ha         1 3XY       0.115000
     54 CAQ          1.3670    -0.0010    -3.7770 c3         1 3XY       0.015800
@<TRIPOS>BOND
     1     1     2 ar  
     2     1     5 ar  
     3     1    11 1   
     4     2     3 ar  
     5     2    12 1   
     6     3     4 ar  
     7     3    14 1   
     8     4    13 ar  
     9     5    13 ar  
    10     6     7 1   
    11     7     8 1   
    12     7     9 1   
    13     7    54 1   
    14    10    11 1   
    15    10    12 2   
    16    10    54 1   
    17    12    35 1   
    18    13    36 1   
    19    14    15 1   
    20    14    37 1   
    21    15    16 1   
    22    15    18 1   
    23    15    38 1   
    24    16    17 1   
    25    16    39 1   
    26    16    40 1   
    27    17    20 1   
    28    17    41 1   
    29    17    42 1   
    30    18    19 1   
    31    18    43 1   
    32    18    44 1   
    33    19    20 1   
    34    19    45 1   
    35    19    46 1   
    36    20    21 1   
    37    21    22 1   
    38    21    47 1   
    39    21    48 1   
    40    22    23 ar  
    41    22    32 ar  
    42    23    24 ar  
    43    23    49 1   
    44    24    25 1   
    45    24    30 ar  
    46    25    26 2   
    47    25    50 1   
    48    26    27 1   
    49    26    29 1   
    50    27    28 3   
    51    29    30 1   
    52    29    51 1   
    53    30    31 ar  
    54    31    32 ar  
    55    31    52 1   
    56    32    53 1   
    57    33    54 1   
    58    34    54 1   
@<TRIPOS>SUBSTRUCTURE
     1 3XY         1 TEMP              0 ****  ****    0 ROOT
