@<TRIPOS>MOLECULE
3XZ
   63    68     1     0     0
SMALL
bcc


@<TRIPOS>ATOM
      1 N1           0.0000     0.0000     0.0000 nb         1 3XZ      -0.756000
      2 N3          -0.1000     0.0010     2.3100 nb         1 3XZ      -0.678000
      3 C4           1.2260     0.0010     2.4090 ca         1 3XZ       0.261300
      4 C5           1.9980     0.0000     1.2360 ca         1 3XZ      -0.237700
      5 C6           1.3290     0.0000     0.0000 ca         1 3XZ       0.588200
      6 C8           3.3720     0.0010     2.9140 cc         1 3XZ       0.278200
      7 C15          3.8610     7.3760    14.6460 ca         1 3XZ      -0.237700
      8 O3P          6.1650     0.9050     9.8310 o          1 3XZ      -0.668000
      9 P            5.9460     1.7110     8.6090 p5         1 3XZ       0.938800
     10 O1P          5.8560     3.2680     9.0030 os         1 3XZ      -0.493200
     11 O2P          7.1710     1.4850     7.5900 o          1 3XZ      -0.668000
     12 O5'          4.5710     1.2540     7.9060 os         1 3XZ      -0.493200
     13 C4'          2.9120    -0.1820     6.8930 c3         1 3XZ       0.153600
     14 C3'          2.5840    -1.6420     6.4900 c3         1 3XZ       0.154100
     15 O3'          2.0110    -2.3570     7.5870 oh         1 3XZ      -0.571300
     16 C2'          1.5450    -1.4410     5.3590 c3         1 3XZ      -0.110400
     17 C1'          1.7870     0.0020     4.8780 c3         1 3XZ       0.156800
     18 O4'          2.8890     0.5270     5.6360 os         1 3XZ      -0.375600
     19 N9           2.1190     0.0020     3.4510 na         1 3XZ       0.212500
     20 N7           3.2990     0.0010     1.6140 nd         1 3XZ      -0.521100
     21 C2          -0.6840     0.0010     1.1300 ca         1 3XZ       0.675900
     22 N6           2.0370     0.0000    -1.1890 nv         1 3XZ      -0.494500
     23 C5A          6.8780     3.9460     9.7370 c3         1 3XZ       0.316400
     24 C4A          6.4760     5.4090     9.9390 c3         1 3XZ       0.153600
     25 C3A          7.5730     6.1730    10.7220 c3         1 3XZ       0.154100
     26 O3A          8.5760     6.6740     9.8360 oh         1 3XZ      -0.571300
     27 C2A          6.7700     7.3330    11.3580 c3         1 3XZ      -0.110400
     28 C1A          5.3120     6.8350    11.3430 c3         1 3XZ       0.156800
     29 O4A          5.3200     5.5050    10.7980 os         1 3XZ      -0.375600
     30 N19          4.7790     6.8110    12.7080 na         1 3XZ       0.212500
     31 C14          4.2170     7.8670    13.3800 ca         1 3XZ       0.261300
     32 N17          4.2110     6.0680    14.6790 nc         1 3XZ      -0.521100
     33 C18          4.7530     5.7350    13.5440 cd         1 3XZ       0.278200
     34 N13          3.9720     9.1410    13.0880 nb         1 3XZ      -0.678000
     35 C12          3.4020     9.9340    13.9710 ca         1 3XZ       0.675900
     36 N11          3.0480     9.5160    15.1730 nb         1 3XZ      -0.756000
     37 C16          3.2540     8.2600    15.5550 ca         1 3XZ       0.588200
     38 N16          2.8750     7.8320    16.8140 nv         1 3XZ      -0.494500
     39 H1           4.2920     0.0020     3.4850 h5         1 3XZ       0.054800
     40 H3           5.0450    -0.4340     6.8230 h1         1 3XZ      -0.006300
     41 H4           4.3290    -0.7290     8.4140 h1         1 3XZ      -0.006300
     42 H5           2.1520     0.2060     7.5610 h1         1 3XZ       0.038200
     43 H6           3.4680    -2.1430     6.1140 h1         1 3XZ       0.018200
     44 H7           2.2950    -3.2560     7.5590 ho         1 3XZ       0.386000
     45 H8           1.7230    -2.1430     4.5540 hc         1 3XZ       0.036200
     46 H9           0.5390    -1.5460     5.7480 hc         1 3XZ       0.036200
     47 H10          0.9010     0.6010     5.0550 h2         1 3XZ       0.046700
     48 H11         -1.7670     0.0010     1.0840 h5         1 3XZ      -0.011400
     49 H12          1.5540     0.1050    -2.0590 hn         1 3XZ       0.273300
     50 H13          3.0320    -0.1030    -1.1780 hn         1 3XZ       0.273300
     51 H14          7.8090     3.9010     9.1860 h1         1 3XZ      -0.006300
     52 H15          7.0050     3.4710    10.7020 h1         1 3XZ      -0.006300
     53 H16          6.2830     5.8920     8.9890 h1         1 3XZ       0.038200
     54 H17          8.0060     5.5420    11.4890 h1         1 3XZ       0.018200
     55 H18          9.4170     6.6400    10.2620 ho         1 3XZ       0.386000
     56 H19          7.0990     7.5070    12.3750 hc         1 3XZ       0.036200
     57 H20          6.8680     8.2320    10.7610 hc         1 3XZ       0.036200
     58 H21          4.7090     7.4840    10.7180 h2         1 3XZ       0.046700
     59 H22          5.1280     4.7480    13.3000 h5         1 3XZ       0.054800
     60 H23          3.2440    10.9710    13.7000 h5         1 3XZ      -0.011400
     61 H24          3.0370     6.8840    17.0900 hn         1 3XZ       0.273300
     62 H25          2.4430     8.4720    17.4510 hn         1 3XZ       0.273300
     63 C5'          4.2990    -0.0990     7.5330 c3         1 3XZ       0.316400
@<TRIPOS>BOND
     1     1     5 ar  
     2     1    21 ar  
     3     2     3 ar  
     4     2    21 ar  
     5     3     4 ar  
     6     3    19 1   
     7     4     5 ar  
     8     4    20 1   
     9     5    22 1   
    10     6    19 1   
    11     6    20 2   
    12     6    39 1   
    13     7    31 ar  
    14     7    32 1   
    15     7    37 ar  
    16     8     9 1   
    17     9    10 1   
    18     9    11 1   
    19     9    12 1   
    20    10    23 1   
    21    12    63 1   
    22    13    14 1   
    23    13    18 1   
    24    13    42 1   
    25    13    63 1   
    26    14    15 1   
    27    14    16 1   
    28    14    43 1   
    29    15    44 1   
    30    16    17 1   
    31    16    45 1   
    32    16    46 1   
    33    17    18 1   
    34    17    19 1   
    35    17    47 1   
    36    21    48 1   
    37    22    49 1   
    38    22    50 1   
    39    23    24 1   
    40    23    51 1   
    41    23    52 1   
    42    24    25 1   
    43    24    29 1   
    44    24    53 1   
    45    25    26 1   
    46    25    27 1   
    47    25    54 1   
    48    26    55 1   
    49    27    28 1   
    50    27    56 1   
    51    27    57 1   
    52    28    29 1   
    53    28    30 1   
    54    28    58 1   
    55    30    31 1   
    56    30    33 1   
    57    31    34 ar  
    58    32    33 2   
    59    33    59 1   
    60    34    35 ar  
    61    35    36 ar  
    62    35    60 1   
    63    36    37 ar  
    64    37    38 1   
    65    38    61 1   
    66    38    62 1   
    67    40    63 1   
    68    41    63 1   
@<TRIPOS>SUBSTRUCTURE
     1 3XZ         1 TEMP              0 ****  ****    0 ROOT
