@<TRIPOS>MOLECULE
molecule
   63    68     1     0     0
SMALL
bcc


@<TRIPOS>ATOM
      1 N1           0.0000     0.0000     0.0000 nb         1 3XZ      -0.845500
      2 N3          -0.1000     0.0010     2.3100 nb         1 3XZ      -0.791500
      3 C4           1.2260     0.0010     2.4090 ca         1 3XZ       0.466300
      4 C5           1.9980     0.0000     1.2360 ca         1 3XZ      -0.205700
      5 C6           1.3290     0.0000     0.0000 ca         1 3XZ       0.781700
      6 C8           3.3720     0.0010     2.9140 cc         1 3XZ       0.452200
      7 C15          3.8610     7.3760    14.6460 ca         1 3XZ      -0.205700
      8 O3P          6.1650     0.9050     9.8310 o          1 3XZ      -0.825000
      9 P            5.9460     1.7110     8.6090 p5         1 3XZ       1.369800
     10 O1P          5.8560     3.2680     9.0030 os         1 3XZ      -0.593200
     11 O2P          7.1710     1.4850     7.5900 o          1 3XZ      -0.825000
     12 O5'          4.5710     1.2540     7.9060 os         1 3XZ      -0.593200
     13 C4'          2.9120    -0.1820     6.8930 c3         1 3XZ       0.131600
     14 C3'          2.5840    -1.6420     6.4900 c3         1 3XZ       0.106600
     15 O3'          2.0110    -2.3570     7.5870 oh         1 3XZ      -0.591300
     16 C2'          1.5450    -1.4410     5.3590 c3         1 3XZ      -0.156400
     17 C1'          1.7870     0.0020     4.8780 c3         1 3XZ       0.253800
     18 O4'          2.8890     0.5270     5.6360 os         1 3XZ      -0.390100
     19 N9           2.1190     0.0020     3.4510 na         1 3XZ      -0.248000
     20 N7           3.2990     0.0010     1.6140 nd         1 3XZ      -0.607600
     21 C2          -0.6840     0.0010     1.1300 ca         1 3XZ       0.726900
     22 N6           2.0370     0.0000    -1.1890 nv         1 3XZ      -0.991000
     23 C5A          6.8780     3.9460     9.7370 c3         1 3XZ       0.239900
     24 C4A          6.4760     5.4090     9.9390 c3         1 3XZ       0.131600
     25 C3A          7.5730     6.1730    10.7220 c3         1 3XZ       0.106600
     26 O3A          8.5760     6.6740     9.8360 oh         1 3XZ      -0.591300
     27 C2A          6.7700     7.3330    11.3580 c3         1 3XZ      -0.156400
     28 C1A          5.3120     6.8350    11.3430 c3         1 3XZ       0.253800
     29 O4A          5.3200     5.5050    10.7980 os         1 3XZ      -0.390100
     30 N19          4.7790     6.8110    12.7080 na         1 3XZ      -0.248000
     31 C14          4.2170     7.8670    13.3800 ca         1 3XZ       0.466300
     32 N17          4.2110     6.0680    14.6790 nd         1 3XZ      -0.607600
     33 C18          4.7530     5.7350    13.5440 cc         1 3XZ       0.452200
     34 N13          3.9720     9.1410    13.0880 nb         1 3XZ      -0.791500
     35 C12          3.4020     9.9340    13.9710 ca         1 3XZ       0.726900
     36 N11          3.0480     9.5160    15.1730 nb         1 3XZ      -0.845500
     37 C16          3.2540     8.2600    15.5550 ca         1 3XZ       0.781700
     38 N16          2.8750     7.8320    16.8140 nv         1 3XZ      -0.991000
     39 H1           4.2920     0.0020     3.4850 h5         1 3XZ       0.102800
     40 H3           5.0450    -0.4340     6.8230 h1         1 3XZ       0.044700
     41 H4           4.3290    -0.7290     8.4140 h1         1 3XZ       0.044700
     42 H5           2.1520     0.2060     7.5610 h1         1 3XZ       0.078700
     43 H6           3.4680    -2.1430     6.1140 h1         1 3XZ       0.053200
     44 H7           2.2950    -3.2560     7.5590 ho         1 3XZ       0.402000
     45 H8           1.7230    -2.1430     4.5540 hc         1 3XZ       0.069950
     46 H9           0.5390    -1.5460     5.7480 hc         1 3XZ       0.069950
     47 H10          0.9010     0.6010     5.0550 h2         1 3XZ       0.088200
     48 H11         -1.7670     0.0010     1.0840 h5         1 3XZ       0.053100
     49 H12          1.5540     0.1050    -2.0590 hn         1 3XZ       0.446050
     50 H13          3.0320    -0.1030    -1.1780 hn         1 3XZ       0.446050
     51 H14          7.8090     3.9010     9.1860 h1         1 3XZ       0.044700
     52 H15          7.0050     3.4710    10.7020 h1         1 3XZ       0.044700
     53 H16          6.2830     5.8920     8.9890 h1         1 3XZ       0.078700
     54 H17          8.0060     5.5420    11.4890 h1         1 3XZ       0.053200
     55 H18          9.4170     6.6400    10.2620 ho         1 3XZ       0.402000
     56 H19          7.0990     7.5070    12.3750 hc         1 3XZ       0.069950
     57 H20          6.8680     8.2320    10.7610 hc         1 3XZ       0.069950
     58 H21          4.7090     7.4840    10.7180 h2         1 3XZ       0.088200
     59 H22          5.1280     4.7480    13.3000 h5         1 3XZ       0.102800
     60 H23          3.2440    10.9710    13.7000 h5         1 3XZ       0.053100
     61 H24          3.0370     6.8840    17.0900 hn         1 3XZ       0.446050
     62 H25          2.4430     8.4720    17.4510 hn         1 3XZ       0.446050
     63 C5'          4.2990    -0.0990     7.5330 c3         1 3XZ       0.239900
@<TRIPOS>BOND
     1    21     1 ar
     2    21     2 ar
     3     1     5 ar
     4     2     3 ar
     5     5    22 1
     6     5     4 ar
     7     3     4 ar
     8     3    19 1
     9    16    14 1
    10    16    17 1
    11     4    20 1
    12    14    15 1
    13    14    13 1
    14    19    17 1
    15    19     6 1
    16    63    13 1
    17    63    12 1
    18    17    18 1
    19    20     6 2
    20    13    18 1
    21    12     9 1
    22     8     9 1
    23     9    11 1
    24     9    10 1
    25    10    23 1
    26    23    24 1
    27    24    29 1
    28    24    25 1
    29    29    28 1
    30    34    35 ar
    31    34    31 ar
    32    26    25 1
    33    35    36 ar
    34    25    27 1
    35    28    30 1
    36    28    27 1
    37    31    30 1
    38    31     7 ar
    39    30    33 1
    40    36    37 ar
    41    33    32 2
    42     7    37 ar
    43     7    32 1
    44    37    38 1
    45     6    39 1
    46    63    40 1
    47    63    41 1
    48    13    42 1
    49    14    43 1
    50    15    44 1
    51    16    45 1
    52    16    46 1
    53    17    47 1
    54    21    48 1
    55    22    49 1
    56    22    50 1
    57    23    51 1
    58    23    52 1
    59    24    53 1
    60    25    54 1
    61    26    55 1
    62    27    56 1
    63    27    57 1
    64    28    58 1
    65    33    59 1
    66    35    60 1
    67    38    61 1
    68    38    62 1
@<TRIPOS>SUBSTRUCTURE
     1 3XZ         1 TEMP              0 ****  ****    0 ROOT
