@<TRIPOS>MOLECULE
3Y1
   44    42     1     0     0
SMALL
bcc


@<TRIPOS>ATOM
      1 C1       -271.5970   -0.0280   20.8730 c1        1 3Y1     -0.198000
      2 C2       -272.8420    0.6520   21.1760 c3        1 3Y1     -0.013000
      3 C4       -274.0280    2.8080   21.3790 c2        1 3Y1      0.302000
      4 C6       -275.0370    2.9770   20.3250 c2        1 3Y1     -0.195000
      5 C8       1245.1060  -13.0720  -89.3560 c2        1 3Y1      0.184000
      6 C9       1244.2070  -13.9660  -88.8110 c2        1 3Y1     -0.295000
      7 C10      1244.4710  -14.6870  -87.6650 c2        1 3Y1      0.184000
      8 C11      -274.7040    2.6200   18.9270 c3        1 3Y1     -0.211000
      9 C15      -269.9510    4.7230   19.9730 ca        1 3Y1     -0.194000
     10 C16      -269.4710    3.7360   20.8670 ca        1 3Y1      0.057000
     11 C20      -269.7940    6.0800   20.2780 ca        1 3Y1     -0.071000
     12 N1       -270.6120   -0.5970   20.6390 n1        1 3Y1      0.078000
     13 N3       -272.7260    2.1320   21.0100 n4        1 3Y1     -0.110000
     14 O5       -274.1010    3.1570   22.5530 o         1 3Y1     -0.200000
     15 C7       -276.2350    3.4810   20.6800 c2        1 3Y1     -0.049000
     16 N12      -270.2740    4.9390   17.5510 n         1 3Y1     -0.387000
     17 O14      -271.5410    3.4490   18.6940 o         1 3Y1     -0.490000
     18 C17      -268.8150    4.1590   22.0480 ca        1 3Y1     -0.162000
     19 C18      -268.6730    5.5130   22.3360 ca        1 3Y1     -0.111000
     20 C19      -269.1670    6.4790   21.4510 ca        1 3Y1     -0.129000
     21 N21      -269.6980    2.3650   20.6450 nh        1 3Y1     -0.350000
     22 BR2      -267.8130    6.0410   23.9100 br        1 3Y1      0.111000
     23 H1       -273.6570    0.2760   20.4840 hx        1 3Y1      0.171000
     24 H2       -273.1410    0.4350   22.2480 hx        1 3Y1      0.171000
     25 H3       1244.8630  -12.5070  -90.2780 ha        1 3Y1      0.180500
     26 H4       -277.0340    3.6410   19.9390 ha        1 3Y1      0.159500
     27 H5       1243.2260  -14.1100  -89.3180 ha        1 3Y1      0.206000
     28 H6       1245.4230  -14.5960  -87.1080 ha        1 3Y1      0.180500
     29 H7       -275.5700    2.8430   18.2520 hc        1 3Y1      0.112333
     30 H8       1243.7270  -15.3980  -87.2540 ha        1 3Y1      0.180500
     31 H9       -273.8260    3.2110   18.5530 hc        1 3Y1      0.112333
     32 H10      -274.4740    1.5300   18.8290 hc        1 3Y1      0.112333
     33 H11      -270.1790    6.8470   19.5860 ha        1 3Y1      0.151000
     34 H12      -271.9780    2.4860   21.6260 hn        1 3Y1      0.288000
     35 H13      1246.0990  -12.8760  -88.9080 ha        1 3Y1      0.180500
     36 H14      -276.4790    3.7590   21.7190 ha        1 3Y1      0.159500
     37 H15      -269.5490    5.6130   17.5320 hn        1 3Y1      0.246500
     38 H16      -268.4090    3.4050   22.7450 ha        1 3Y1      0.163000
     39 H17      -269.0560    7.5530   21.6750 ha        1 3Y1      0.171000
     40 H18      -269.0140    1.7830   21.0880 hn        1 3Y1      0.198500
     41 H19      -269.8020    2.1380   19.6740 hn        1 3Y1      0.198500
     42 C13      -270.6370    4.3300   18.7120 c2        1 3Y1      0.372000
     43 H32      -272.4660    2.3650   20.0320 hn        1 3Y1      0.288000
     44 H122     -270.7190    4.6880   16.7000 hn        1 3Y1      0.246500
@<TRIPOS>BOND
     1    1    2 1   
     2    1   12 1   
     3    2   13 1   
     4    2   23 1   
     5    2   24 1   
     6    3    4 1   
     7    3   13 1   
     8    3   14 1   
     9    4    8 1   
    10    4   15 1   
    11    5    6 1   
    12    5   25 1   
    13    5   35 1   
    14    6    7 1   
    15    6   27 1   
    16    7   28 1   
    17    7   30 1   
    18    8   29 1   
    19    8   31 1   
    20    8   32 1   
    21    9   10 1   
    22    9   11 1   
    23    9   42 1   
    24   10   18 1   
    25   10   21 1   
    26   11   20 1   
    27   11   33 1   
    28   13   34 1   
    29   13   43 1   
    30   15   26 1   
    31   15   36 1   
    32   16   37 1   
    33   16   42 1   
    34   16   44 1   
    35   17   42 1   
    36   18   19 1   
    37   18   38 1   
    38   19   20 1   
    39   19   22 1   
    40   20   39 1   
    41   21   40 1   
    42   21   41 1   
@<TRIPOS>SUBSTRUCTURE
     1 3Y1         1 TEMP              0 ****  ****    0 ROOT
