@<TRIPOS>MOLECULE
molecule
   42    43     1     0     0
SMALL
bcc


@<TRIPOS>ATOM
      1 C1          -0.4900     0.0000     1.3890 c1         1 3Y1       0.192700
      2 C2           0.0000     0.0000     0.0000 c3         1 3Y1      -0.292900
      3 C4           2.1380     0.0000    -1.1680 c          1 3Y1      -0.409900
      4 C6           3.6400     0.1110    -1.1710 c3         1 3Y1       0.030400
      5 C8           5.6340     0.7930    -2.5150 c3         1 3Y1      -0.044900
      6 C9           6.2470    -0.5940    -2.3090 c3         1 3Y1      -0.113400
      7 C10          5.7810    -1.1630    -0.9670 c3         1 3Y1      -0.044900
      8 C11          4.2550    -1.2750    -0.9640 c3         1 3Y1      -0.049900
      9 C15          4.9000     3.2510     0.8520 ca         1 3Y1      -0.087600
     10 C16          4.8820     2.6820     2.0260 ca         1 3Y1       0.176600
     11 C20          5.6900     4.1520     0.1890 ca         1 3Y1       0.006000
     12 N1          -0.8660     0.0200     2.4600 n1         1 3Y1      -0.353800
     13 N3           1.4650     0.0000     0.0000 ns         1 3Y1      -0.025900
     14 O5           1.4930     0.4390    -0.5270 o          1 3Y1       0.601900
     15 C7           4.1080     0.6800    -2.5120 c3         1 3Y1      -0.049900
     16 N12          4.0670     1.0010    -0.0880 ns         1 3Y1      -0.452900
     17 O14          4.5780     2.5350    -1.3500 o          1 3Y1      -0.689100
     18 C17          5.3140     3.6520     2.9640 ca         1 3Y1      -0.129000
     19 C18          5.6300     4.7500     2.7620 ca         1 3Y1       0.008100
     20 C19          5.5940     5.1700     1.5400 ca         1 3Y1      -0.174000
     21 N21          4.2310     1.3190     2.3820 nv         1 3Y1      -0.989200
     22 Br2          6.3140     5.7900     4.0120 br         1 3Y1      -0.049100
     23 H1           0.1840     0.8350    -0.6660 h1         1 3Y1       0.120700
     24 H2          -0.7060    -0.8070    -0.1560 h1         1 3Y1       0.120700
     25 H3           6.0150     0.9050    -3.5230 hc         1 3Y1       0.050950
     26 H4           6.3760     1.4180    -2.0330 hc         1 3Y1       0.050950
     27 H5           7.3070    -0.6560    -2.0930 hc         1 3Y1       0.035700
     28 H6           6.0200    -1.3400    -3.0600 hc         1 3Y1       0.035700
     29 H7           6.1510    -2.1590    -0.7520 hc         1 3Y1       0.050950
     30 H8           6.1640    -0.3210    -0.4030 hc         1 3Y1       0.050950
     31 H9           3.6990    -1.2590    -0.0340 hc         1 3Y1       0.058950
     32 H10          3.6820    -1.8840    -1.6530 hc         1 3Y1       0.058950
     33 H11          5.7020     4.7430    -0.7190 ha         1 3Y1       0.208000
     34 H12          1.8760     0.8050     0.4300 hn         1 3Y1      -0.003500
     35 H13          3.5650     1.6140    -2.5960 hc         1 3Y1       0.058950
     36 H14          3.4540     0.3170    -3.2960 hc         1 3Y1       0.058950
     37 H15          3.7520     0.5160     0.7290 hn         1 3Y1       0.317500
     38 H16          5.0230     3.1760     3.8920 ha         1 3Y1       0.136000
     39 H17          6.0840     6.0540     1.1520 ha         1 3Y1       0.133000
     40 H18          3.2320     1.3840     2.3990 hn         1 3Y1       0.410300
     41 H19          4.3950     0.4120     2.7730 hn         1 3Y1       0.410300
     42 C13          4.3950     2.1050    -0.2170 c          1 3Y1       0.576700
@<TRIPOS>BOND
     1     6     7 1   
     2     6     5 1   
     3     7     8 1   
     4     5    15 1   
     5     8     4 1   
     6    15     4 1   
     7     4    16 1   
     8     4     3 1   
     9    16    42 1   
    10     3    13 1   
    11     3    14 2   
    12    11    20 ar  
    13    11     9 ar  
    14    13     2 1   
    15    42     9 1   
    16    42    17 2   
    17    20    19 ar  
    18     9    10 ar  
    19     2     1 1   
    20    19    22 1   
    21    19    18 ar  
    22    10    18 ar  
    23    10    21 1   
    24     1    12 3   
    25     2    23 1   
    26     2    24 1   
    27     5    25 1   
    28     5    26 1   
    29     6    27 1   
    30     6    28 1   
    31     7    29 1   
    32     7    30 1   
    33     8    31 1   
    34     8    32 1   
    35    11    33 1   
    36    13    34 1   
    37    15    35 1   
    38    15    36 1   
    39    16    37 1   
    40    18    38 1   
    41    20    39 1   
    42    21    40 1   
    43    21    41 1   
@<TRIPOS>SUBSTRUCTURE
     1 3Y1         1 TEMP              0 ****  ****    0 ROOT
