@<TRIPOS>MOLECULE
molecule
   44    45     1     0     0
SMALL
bcc


@<TRIPOS>ATOM
      1 C1           0.0000     0.0000     0.0000 c2         1 3Y2       0.414200
      2 C2           1.5070     0.0000     0.0000 c3         1 3Y2       0.066700
      3 C4           3.3210    -0.0000     1.6270 c          1 3Y2       0.672100
      4 C6           3.8240    -0.1120     3.0430 c3         1 3Y2       0.063400
      5 C7           3.8840    -1.5860     3.4470 c3         1 3Y2      -0.079900
      6 C8           4.3960    -1.7010     4.8840 c3         1 3Y2      -0.080900
      7 C9           5.7950    -1.0910     4.9770 c3         1 3Y2      -0.082400
      8 C10          5.7360     0.3840     4.5730 c3         1 3Y2      -0.080900
      9 C11          5.2240     0.4980     3.1360 c3         1 3Y2      -0.079900
     10 N3           1.9960     0.0000     1.3810 ns         1 3Y2      -0.578900
     11 N1          -0.6400     0.9050    -0.6400 n2         1 3Y2      -0.771100
     12 O5           4.1080     0.0910     0.7080 o          1 3Y2      -0.596100
     13 N12          2.9170     0.6050     3.9420 ns         1 3Y2      -0.592900
     14 O14          3.1000     2.4710     2.7520 o          1 3Y2      -0.585100
     15 C15          1.8350     2.6600     4.7030 ca         1 3Y2      -0.194600
     16 C16          1.6490     4.0420     4.5490 ca         1 3Y2       0.252600
     17 C17          0.8720     4.7370     5.4680 ca         1 3Y2      -0.175000
     18 C18          0.2870     4.0690     6.5250 ca         1 3Y2       0.069400
     19 C19          0.4690     2.7020     6.6790 ca         1 3Y2      -0.159000
     20 C20          1.2320     1.9960     5.7760 ca         1 3Y2      -0.083000
     21 N21          2.2390     4.7130     3.4850 nv         1 3Y2      -0.942200
     22 Cl2         -0.6820     4.9450     7.6690 cl         1 3Y2      -0.103400
     23 H1          -0.5420    -0.7660     0.5420 h4         1 3Y2      -0.045200
     24 H2           1.8680    -0.8840    -0.5110 h1         1 3Y2       0.074700
     25 H3           1.8680     0.8840    -0.5110 h1         1 3Y2       0.074700
     26 H4           4.5570    -2.1150     2.7820 hc         1 3Y2       0.066200
     27 H5           2.8920    -2.0170     3.3820 hc         1 3Y2       0.066200
     28 H6           3.7260    -1.1690     5.5480 hc         1 3Y2       0.042700
     29 H7           4.4390    -2.7460     5.1680 hc         1 3Y2       0.042700
     30 H8           6.1550    -1.1700     5.9960 hc         1 3Y2       0.045200
     31 H9           6.4640    -1.6200     4.3100 hc         1 3Y2       0.045200
     32 H10          6.7280     0.8150     4.6370 hc         1 3Y2       0.042700
     33 H11          5.0630     0.9130     5.2380 hc         1 3Y2       0.042700
     34 H12          5.1810     1.5430     2.8520 hc         1 3Y2       0.066200
     35 H13          5.8940    -0.0350     2.4720 hc         1 3Y2       0.066200
     36 H14          1.3460    -0.0060     2.1420 hn         1 3Y2       0.313500
     37 H15         -1.6410     0.9050    -0.6390 hn         1 3Y2       0.397400
     38 H16          2.4940     0.1250     4.7120 hn         1 3Y2       0.316500
     39 H17          0.7250     5.8040     5.3540 ha         1 3Y2       0.154000
     40 H18          0.0050     2.1860     7.5100 ha         1 3Y2       0.145000
     41 H19          1.3700     0.9290     5.9010 ha         1 3Y2       0.128000
     42 H20          1.6680     5.1990     2.8230 hn         1 3Y2       0.443800
     43 H21          3.2360     4.7500     3.4100 hn         1 3Y2       0.443800
     44 C13          2.6560     1.9110     3.7360 c          1 3Y2       0.672700
@<TRIPOS>BOND
     1    11     1 2
     2     1     2 1
     3     2    10 1
     4    10     3 1
     5     3    12 2
     6     3     4 1
     7     9     4 1
     8     9     8 1
     9     4     5 1
    10     4    13 1
    11     5     6 1
    12    14    44 2
    13     7     8 1
    14     7     6 1
    15    13    44 1
    16    44    15 1
    17    21    16 1
    18    15    16 ar
    19    15    20 ar
    20    16    17 ar
    21    20    19 ar
    22    17    18 ar
    23    19    18 ar
    24    18    22 1
    25     1    23 1
    26     2    24 1
    27     2    25 1
    28     5    26 1
    29     5    27 1
    30     6    28 1
    31     6    29 1
    32     7    30 1
    33     7    31 1
    34     8    32 1
    35     8    33 1
    36     9    34 1
    37     9    35 1
    38    10    36 1
    39    11    37 1
    40    13    38 1
    41    17    39 1
    42    19    40 1
    43    20    41 1
    44    21    42 1
    45    21    43 1
@<TRIPOS>SUBSTRUCTURE
     1 3Y2         1 TEMP              0 ****  ****    0 ROOT
