@<TRIPOS>MOLECULE
molecule
   65    69     1     0     0
SMALL
bcc


@<TRIPOS>ATOM
      1 C13          0.0000     0.0000     0.0000 ca         1 3Y3      -0.047000
      2 C16          2.1030     0.0010    -1.2200 ca         1 3Y3      -0.023200
      3 C15          1.3990     0.0000     0.0000 ca         1 3Y3      -0.252900
      4 C19          2.4120     0.0000     1.0570 cc         1 3Y3       0.603800
      5 C21         -2.0550     3.3060    -9.2610 ca         1 3Y3      -0.088500
      6 C22         -0.9410     2.9520    -8.5240 ca         1 3Y3      -0.068300
      7 C23          0.3200     3.0700    -9.0780 ca         1 3Y3      -0.088500
      8 C24          0.4660     3.5400   -10.3690 ca         1 3Y3      -0.170000
      9 C11          0.0100    -0.0050    -2.3990 ca         1 3Y3      -0.080500
     10 C12          1.3970     0.0020    -2.4190 ca         1 3Y3      -0.128000
     11 C34         -6.6420    -2.0160   -12.4490 ca         1 3Y3       0.064400
     12 C27         -1.1010     2.4400    -7.1160 c3         1 3Y3      -0.048100
     13 C33         -7.6250    -1.0470   -12.5370 ca         1 3Y3      -0.106000
     14 C1          -3.6880     0.0140   -11.2620 c3         1 3Y3       0.180300
     15 N2          -3.6630     0.1280    -9.8020 ns         1 3Y3      -0.619900
     16 C3          -1.2510     0.9180    -7.1410 c3         1 3Y3       0.132400
     17 N4          -2.4950     0.5600    -7.8270 ns         1 3Y3      -0.603900
     18 C5          -1.2880     0.3920    -5.7290 cc         1 3Y3       0.379800
     19 N6          -2.2660    -0.3900    -5.2030 na         1 3Y3      -0.294900
     20 C7          -1.9270    -0.6470    -3.9040 cc         1 3Y3      -0.106200
     21 C8          -0.7460    -0.0110    -3.6750 cd         1 3Y3       0.413800
     22 N9          -0.3830     0.6100    -4.8160 nd         1 3Y3      -0.663000
     23 C14         -0.6810    -0.0050    -1.1800 ca         1 3Y3      -0.164000
     24 N17          3.4380     0.0010    -0.9080 na         1 3Y3      -0.048100
     25 N18          3.5850     0.0010     0.4820 nd         1 3Y3      -0.511100
     26 N20          2.1670    -0.0000     2.4320 nv         1 3Y3      -1.015800
     27 C25         -0.6480     3.8930   -11.1060 ca         1 3Y3      -0.118000
     28 C26         -1.9090     3.7760   -10.5530 ca         1 3Y3      -0.170000
     29 C28         -2.5180     0.4570    -9.1710 c          1 3Y3       0.782100
     30 O29         -1.5060     0.6580    -9.8140 o          1 3Y3      -0.624100
     31 C30         -5.0760    -0.3600   -11.7130 ca         1 3Y3      -0.088300
     32 C31         -6.0580     0.6090   -11.8060 ca         1 3Y3      -0.188300
     33 C32         -7.3330     0.2650   -12.2160 ca         1 3Y3      -0.089000
     34 C35         -5.3680    -1.6720   -12.0340 ca         1 3Y3      -0.097000
     35 C37         -5.7390     2.0400   -11.4570 c3         1 3Y3       0.158100
     36 N38         -5.0580     2.6810   -12.5890 nz         1 3Y3      -0.810600
     37 H46         -0.5420    -0.0000     0.9380 ha         1 3Y3       0.139000
     38 H51         -3.0370     3.2770    -8.8050 ha         1 3Y3       0.127500
     39 H52          1.1960     2.8440    -8.4820 ha         1 3Y3       0.127500
     40 H53          1.4310     3.7990   -10.7870 ha         1 3Y3       0.130000
     41 H45          1.9250     0.1210    -3.3580 ha         1 3Y3       0.145000
     42 H57         -1.9830     2.8820    -6.6680 hc         1 3Y3       0.074700
     43 H56         -0.2280     2.7070    -6.5330 hc         1 3Y3       0.074700
     44 H40         -2.9880    -0.7510   -11.5770 h1         1 3Y3       0.053200
     45 H39         -3.4080     0.9630   -11.7040 h1         1 3Y3       0.053200
     46 H41         -4.4840    -0.0810    -9.2700 hn         1 3Y3       0.314500
     47 H42         -0.4110     0.4810    -7.6670 h1         1 3Y3       0.114700
     48 H43         -3.3330     0.4130    -7.3000 hn         1 3Y3       0.301500
     49 H44         -3.1020    -0.6410    -5.6920 hn         1 3Y3       0.296700
     50 H47         -1.7640    -0.0110    -1.1750 ha         1 3Y3       0.136000
     51 H48          4.1880     0.0010    -1.5710 hn         1 3Y3       0.335700
     52 H49          2.1120     0.8660     2.9310 hn         1 3Y3       0.441300
     53 H50          2.0880    -0.8670     2.9260 hn         1 3Y3       0.441300
     54 H54         -0.5310     4.2930   -12.1060 ha         1 3Y3       0.124000
     55 H55         -2.4420     4.6450   -10.9190 ha         1 3Y3       0.130000
     56 H58         -8.1020     1.0240   -12.2870 ha         1 3Y3       0.147000
     57 H60         -4.5980    -2.4310   -11.9660 ha         1 3Y3       0.175000
     58 H62         -6.6570     2.5720   -11.2400 hx         1 3Y3       0.115700
     59 H61         -5.0940     2.0640   -10.5870 hx         1 3Y3       0.115700
     60 H64         -5.5050     2.4130   -13.4430 hn         1 3Y3       0.458133
     61 H63         -4.1000     2.3920   -12.6090 hn         1 3Y3       0.458133
     62 Cl1         -7.0090    -3.6650   -12.8510 cl         1 3Y3      -0.037400
     63 H383        -5.1030     3.6760   -12.4860 hn         1 3Y3       0.458133
     64 Cl          -2.8290    -1.5990    -2.7670 cl         1 3Y3      -0.028400
     65 H59         -8.6240    -1.3160   -12.8600 ha         1 3Y3       0.174000
@<TRIPOS>BOND
     1    36    35 1   
     2    35    32 1   
     3    64    20 1   
     4     5    28 ar  
     5     5     6 ar  
     6    32    33 ar  
     7    32    31 ar  
     8    33    13 ar  
     9    19    20 1   
    10    19    18 1   
    11    28    27 ar  
    12    12     6 1   
    13    12    16 1   
    14    20    21 2   
    15    31    14 1   
    16    31    34 ar  
    17    14    15 1   
    18    13    11 ar  
    19     6     7 ar  
    20    17    16 1   
    21    17    29 1   
    22    18    16 1   
    23    18    22 2   
    24    34    11 ar  
    25    11    62 1   
    26    15    29 1   
    27    27     8 ar  
    28    21    22 1   
    29    21     9 1   
    30    29    30 2   
    31     7     8 ar  
    32    10     9 ar  
    33    10     2 ar  
    34     9    23 ar  
    35    24     2 1   
    36    24    25 1   
    37     2     3 ar  
    38    23     1 ar  
    39    25     4 2   
    40     3     1 ar  
    41     3     4 1   
    42     4    26 1   
    43     1    37 1   
    44     5    38 1   
    45     7    39 1   
    46     8    40 1   
    47    10    41 1   
    48    12    42 1   
    49    12    43 1   
    50    13    65 1   
    51    14    44 1   
    52    14    45 1   
    53    15    46 1   
    54    16    47 1   
    55    17    48 1   
    56    19    49 1   
    57    23    50 1   
    58    24    51 1   
    59    26    52 1   
    60    26    53 1   
    61    27    54 1   
    62    28    55 1   
    63    33    56 1   
    64    34    57 1   
    65    35    58 1   
    66    35    59 1   
    67    36    60 1   
    68    36    61 1   
    69    63    36 1   
@<TRIPOS>SUBSTRUCTURE
     1 3Y3         1 TEMP              0 ****  ****    0 ROOT
