@<TRIPOS>MOLECULE
3Y3
   65    69     1     0     0
SMALL
bcc


@<TRIPOS>ATOM
      1 C13          0.0000     0.0000     0.0000 ca         1 3Y3      -0.004000
      2 C16          2.1030     0.0010    -1.2200 ca         1 3Y3      -0.186200
      3 C15          1.3990     0.0000     0.0000 ca         1 3Y3      -0.262900
      4 C19          2.4120     0.0000     1.0570 cc         1 3Y3       0.488800
      5 C21         -2.0550     3.3060    -9.2610 ca         1 3Y3      -0.055500
      6 C22         -0.9410     2.9520    -8.5240 ca         1 3Y3      -0.074300
      7 C23          0.3200     3.0700    -9.0780 ca         1 3Y3      -0.055500
      8 C24          0.4660     3.5400   -10.3690 ca         1 3Y3      -0.152500
      9 C11          0.0100    -0.0050    -2.3990 ca         1 3Y3      -0.079500
     10 C12          1.3970     0.0020    -2.4190 ca         1 3Y3      -0.093000
     11 C34         -6.6420    -2.0160   -12.4490 ca         1 3Y3      -0.014600
     12 C27         -1.1010     2.4400    -7.1160 c3         1 3Y3       0.011900
     13 C33         -7.6250    -1.0470   -12.5370 ca         1 3Y3      -0.076000
     14 C1          -3.6880     0.0140   -11.2620 c3         1 3Y3       0.131300
     15 N2          -3.6630     0.1280    -9.8020 ns         1 3Y3      -0.248900
     16 C3          -1.2510     0.9180    -7.1410 c3         1 3Y3       0.045400
     17 N4          -2.4950     0.5600    -7.8270 ns         1 3Y3      -0.221900
     18 C5          -1.2880     0.3920    -5.7290 cc         1 3Y3       0.148800
     19 N6          -2.2660    -0.3900    -5.2030 na         1 3Y3       0.255100
     20 C7          -1.9270    -0.6470    -3.9040 cc         1 3Y3      -0.384200
     21 C8          -0.7460    -0.0110    -3.6750 cd         1 3Y3       0.388800
     22 N9          -0.3830     0.6100    -4.8160 nd         1 3Y3      -0.572000
     23 C14         -0.6810    -0.0050    -1.1800 ca         1 3Y3      -0.155000
     24 N17          3.4380     0.0010    -0.9080 na         1 3Y3       0.422900
     25 N18          3.5850     0.0010     0.4820 nd         1 3Y3      -0.639100
     26 N20          2.1670    -0.0000     2.4320 nv         1 3Y3      -0.572800
     27 C25         -0.6480     3.8930   -11.1060 ca         1 3Y3      -0.086000
     28 C26         -1.9090     3.7760   -10.5530 ca         1 3Y3      -0.152500
     29 C28         -2.5180     0.4570    -9.1710 c          1 3Y3       0.583100
     30 O29         -1.5060     0.6580    -9.8140 o          1 3Y3      -0.669100
     31 C30         -5.0760    -0.3600   -11.7130 ca         1 3Y3      -0.092300
     32 C31         -6.0580     0.6090   -11.8060 ca         1 3Y3      -0.201300
     33 C32         -7.3330     0.2650   -12.2160 ca         1 3Y3      -0.051000
     34 C35         -5.3680    -1.6720   -12.0340 ca         1 3Y3      -0.066000
     35 C37         -5.7390     2.0400   -11.4570 c3         1 3Y3       0.030100
     36 N38         -5.0580     2.6810   -12.5890 nz         1 3Y3       0.060400
     37 H46         -0.5420    -0.0000     0.9380 ha         1 3Y3       0.105000
     38 H51         -3.0370     3.2770    -8.8050 ha         1 3Y3       0.099500
     39 H52          1.1960     2.8440    -8.4820 ha         1 3Y3       0.099500
     40 H53          1.4310     3.7990   -10.7870 ha         1 3Y3       0.106500
     41 H45          1.9250     0.1210    -3.3580 ha         1 3Y3       0.118000
     42 H57         -1.9830     2.8820    -6.6680 hc         1 3Y3       0.040700
     43 H56         -0.2280     2.7070    -6.5330 hc         1 3Y3       0.040700
     44 H40         -2.9880    -0.7510   -11.5770 h1         1 3Y3       0.021700
     45 H39         -3.4080     0.9630   -11.7040 h1         1 3Y3       0.021700
     46 H41         -4.4840    -0.0810    -9.2700 hn         1 3Y3       0.177500
     47 H42         -0.4110     0.4810    -7.6670 h1         1 3Y3       0.079700
     48 H43         -3.3330     0.4130    -7.3000 hn         1 3Y3       0.161500
     49 H44         -3.1020    -0.6410    -5.6920 hn         1 3Y3       0.117700
     50 H47         -1.7640    -0.0110    -1.1750 ha         1 3Y3       0.111000
     51 H48          4.1880     0.0010    -1.5710 hn         1 3Y3       0.153700
     52 H49          2.1120     0.8660     2.9310 hn         1 3Y3       0.274800
     53 H50          2.0880    -0.8670     2.9260 hn         1 3Y3       0.274800
     54 H54         -0.5310     4.2930   -12.1060 ha         1 3Y3       0.097000
     55 H55         -2.4420     4.6450   -10.9190 ha         1 3Y3       0.106500
     56 H58         -8.1020     1.0240   -12.2870 ha         1 3Y3       0.115000
     57 H60         -4.5980    -2.4310   -11.9660 ha         1 3Y3       0.140000
     58 H62         -6.6570     2.5720   -11.2400 hx         1 3Y3       0.085700
     59 H61         -5.0940     2.0640   -10.5870 hx         1 3Y3       0.085700
     60 H64         -5.5050     2.4130   -13.4430 hn         1 3Y3       0.230133
     61 H63         -4.1000     2.3920   -12.6090 hn         1 3Y3       0.230133
     62 Cl1         -7.0090    -3.6650   -12.8510 cl         1 3Y3       0.062600
     63 H383        -5.1030     3.6760   -12.4860 hn         1 3Y3       0.230133
     64 Cl          -2.8290    -1.5990    -2.7670 cl         1 3Y3       0.079600
     65 H59         -8.6240    -1.3160   -12.8600 ha         1 3Y3       0.137000
@<TRIPOS>BOND
     1     1     3 ar  
     2     1    23 ar  
     3     1    37 1   
     4     2     3 ar  
     5     2    10 ar  
     6     2    24 1   
     7     3     4 1   
     8     4    25 2   
     9     4    26 1   
    10     5     6 ar  
    11     5    28 ar  
    12     5    38 1   
    13     6     7 ar  
    14     6    12 1   
    15     7     8 ar  
    16     7    39 1   
    17     8    27 ar  
    18     8    40 1   
    19     9    10 ar  
    20     9    21 1   
    21     9    23 ar  
    22    10    41 1   
    23    11    13 ar  
    24    11    34 ar  
    25    11    62 1   
    26    12    16 1   
    27    12    42 1   
    28    12    43 1   
    29    13    33 ar  
    30    13    65 1   
    31    14    15 1   
    32    14    31 1   
    33    14    44 1   
    34    14    45 1   
    35    15    29 1   
    36    15    46 1   
    37    16    17 1   
    38    16    18 1   
    39    16    47 1   
    40    17    29 1   
    41    17    48 1   
    42    18    19 1   
    43    18    22 2   
    44    19    20 1   
    45    19    49 1   
    46    20    21 2   
    47    20    64 1   
    48    21    22 1   
    49    23    50 1   
    50    24    25 1   
    51    24    51 1   
    52    26    52 1   
    53    26    53 1   
    54    27    28 ar  
    55    27    54 1   
    56    28    55 1   
    57    29    30 2   
    58    31    32 ar  
    59    31    34 ar  
    60    32    33 ar  
    61    32    35 1   
    62    33    56 1   
    63    34    57 1   
    64    35    36 1   
    65    35    58 1   
    66    35    59 1   
    67    36    60 1   
    68    36    61 1   
    69    36    63 1   
@<TRIPOS>SUBSTRUCTURE
     1 3Y3         1 TEMP              0 ****  ****    0 ROOT
