@<TRIPOS>MOLECULE
molecule
   68    72     1     0     0
SMALL
bcc


@<TRIPOS>ATOM
      1 C17          0.0000     0.0000     0.0000 c3         1 3Y4      -0.029100
      2 C16          1.5070     0.0000     0.0000 ca         1 3Y4      -0.060300
      3 C20         -0.5100     1.4210     0.2510 c3         1 3Y4      -0.145400
      4 C23         -2.0140     1.4400     0.1510 c          1 3Y4       0.665100
      5 C12          2.0210     0.0760     3.6630 cc         1 3Y4       0.409400
      6 C27         -4.1280     2.6420     0.0090 c3         1 3Y4       0.107400
      7 C33         -3.5720     1.1620     2.9610 ca         1 3Y4      -0.117500
      8 Cl1          4.4470    -0.0140    -2.7010 cl         1 3Y4      -0.088400
      9 C2           3.5820    -0.0060    -1.1960 ca         1 3Y4       0.031400
     10 C3           4.2760     0.0000     0.0010 ca         1 3Y4      -0.107000
     11 C5           3.5890    -0.0000     1.1990 ca         1 3Y4      -0.132000
     12 C7           2.2010     0.0000     1.2030 ca         1 3Y4       0.005800
     13 N8           1.5020     0.0010     2.4180 na         1 3Y4       0.004500
     14 N9           0.1100    -0.0770     2.6020 nc         1 3Y4      -0.208800
     15 N10         -0.0970    -0.0440     3.8750 nd         1 3Y4      -0.007000
     16 N11          1.0200     0.0400     4.5040 nd         1 3Y4      -0.406000
     17 C14          2.1970    -0.0060    -1.1950 ca         1 3Y4      -0.104000
     18 O24         -2.6250     0.4020     0.0060 o          1 3Y4      -0.580100
     19 N25         -2.6800     2.6090     0.2230 ns         1 3Y4      -0.598900
     20 C29         -4.8450     2.6060     1.3610 c3         1 3Y4      -0.042100
     21 C32         -4.5880     1.2810     2.0300 ca         1 3Y4      -0.085300
     22 C35         -3.3360    -0.0540     3.5760 ca         1 3Y4      -0.119500
     23 C37         -4.1190    -1.1490     3.2630 ca         1 3Y4      -0.126000
     24 C39         -5.1380    -1.0290     2.3370 ca         1 3Y4      -0.119500
     25 C41         -5.3660     0.1830     1.7140 ca         1 3Y4      -0.117500
     26 C43         -4.4990     3.9060    -0.7230 cd         1 3Y4       0.404800
     27 N44         -3.6280     4.8170    -1.2060 na         1 3Y4      -0.282900
     28 C46         -4.3710     5.8130    -1.8010 cd         1 3Y4      -0.164600
     29 C47         -5.6780     5.4610    -1.6520 cc         1 3Y4       0.431300
     30 Cl2         -7.0500     6.3610    -2.2170 cl         1 3Y4      -0.133000
     31 N49         -5.7170     4.2930    -0.9970 nc         1 3Y4      -0.681000
     32 C50         -3.8520     7.0260    -2.4690 ca         1 3Y4      -0.035000
     33 C51         -2.8330     7.7710    -1.8740 ca         1 3Y4      -0.092500
     34 C53         -2.3520     8.9010    -2.4990 ca         1 3Y4      -0.143000
     35 C55         -2.8800     9.2980    -3.7210 ca         1 3Y4       0.079600
     36 C56         -3.8950     8.5590    -4.3170 ca         1 3Y4      -0.143000
     37 C58         -4.3770     7.4250    -3.6990 ca         1 3Y4      -0.092500
     38 N60         -2.3890    10.4470    -4.3530 ns         1 3Y4      -0.463100
     39 C62         -1.0880    10.7780    -4.2330 c          1 3Y4       0.750100
     40 O63         -0.3230    10.0350    -3.6530 o          1 3Y4      -0.599000
     41 O64         -0.6380    11.9360    -4.7540 os         1 3Y4      -0.438900
     42 C65          0.7740    12.2290    -4.5860 c3         1 3Y4       0.158700
     43 H1          -0.3610    -0.6570     0.7820 hc         1 3Y4       0.088200
     44 H2          -0.3610    -0.3490    -0.9600 hc         1 3Y4       0.088200
     45 H3          -0.2100     1.7430     1.2400 hc         1 3Y4       0.061200
     46 H4          -0.0910     2.0910    -0.4900 hc         1 3Y4       0.061200
     47 H5           3.0710     0.1460     3.9180 h5         1 3Y4       0.083100
     48 H6          -4.4250     1.7830    -0.5800 h1         1 3Y4       0.115700
     49 H8           5.3600    -0.0000    -0.0020 ha         1 3Y4       0.156000
     50 H9           4.1340     0.0020     2.1360 ha         1 3Y4       0.141000
     51 H10          1.6560    -0.0270    -2.1330 ha         1 3Y4       0.160000
     52 H11         -2.1880     3.4530     0.4440 hn         1 3Y4       0.304500
     53 H12         -4.4720     3.4060     1.9890 hc         1 3Y4       0.064700
     54 H13         -5.9100     2.7330     1.2080 hc         1 3Y4       0.064700
     55 H14         -2.5390    -0.1480     4.3030 ha         1 3Y4       0.134500
     56 H15         -3.9370    -2.1010     3.7470 ha         1 3Y4       0.125000
     57 H16         -5.7500    -1.8880     2.0900 ha         1 3Y4       0.134500
     58 H17         -6.1630     0.2760     0.9860 ha         1 3Y4       0.124000
     59 H18         -2.6300     4.7770    -1.1430 hn         1 3Y4       0.305700
     60 H20         -2.4200     7.4610    -0.9210 ha         1 3Y4       0.141000
     61 H21         -1.5610     9.4790    -2.0380 ha         1 3Y4       0.151500
     62 H22         -4.3030     8.8710    -5.2710 ha         1 3Y4       0.151500
     63 H23         -5.1680     6.8490    -4.1640 ha         1 3Y4       0.141000
     64 H24         -3.0080    11.0320    -4.8790 hn         1 3Y4       0.336500
     65 H25          1.0180    13.1440    -5.1110 h1         1 3Y4       0.051700
     66 H26          1.3620    11.4140    -4.9890 h1         1 3Y4       0.051700
     67 H27          0.9950    12.3480    -3.5320 h1         1 3Y4       0.051700
     68 H7          -2.9590     2.0210     3.2060 ha         1 3Y4       0.124000
@<TRIPOS>BOND
     1    16     5 2
     2    16    15 1
     3     5    13 1
     4    15    14 2
     5    13    14 1
     6    13    12 1
     7    30    29 1
     8    12    11 ar
     9    12     2 ar
    10    11    10 ar
    11    25    24 ar
    12    25    21 ar
    13    31    29 1
    14    31    26 2
    15     2     1 1
    16     2    17 ar
    17    10     9 ar
    18    20    21 1
    19    20     6 1
    20    24    23 ar
    21     1     3 1
    22    29    28 2
    23    21     7 ar
    24    19     6 1
    25    19     4 1
    26     9    17 ar
    27     9     8 1
    28    26     6 1
    29    26    27 1
    30     3     4 1
    31    23    22 ar
    32     4    18 2
    33    28    27 1
    34    28    32 1
    35     7    22 ar
    36    33    32 ar
    37    33    34 ar
    38    32    37 ar
    39    34    35 ar
    40    37    36 ar
    41    35    36 ar
    42    35    38 1
    43    40    39 2
    44    38    39 1
    45    39    41 1
    46    41    42 1
    47     1    43 1
    48     1    44 1
    49     3    45 1
    50     3    46 1
    51     5    47 1
    52     6    48 1
    53     7    68 1
    54    10    49 1
    55    11    50 1
    56    17    51 1
    57    19    52 1
    58    20    53 1
    59    20    54 1
    60    22    55 1
    61    23    56 1
    62    24    57 1
    63    25    58 1
    64    27    59 1
    65    33    60 1
    66    34    61 1
    67    36    62 1
    68    37    63 1
    69    38    64 1
    70    42    65 1
    71    42    66 1
    72    42    67 1
@<TRIPOS>SUBSTRUCTURE
     1 3Y4         1 TEMP              0 ****  ****    0 ROOT
