@<TRIPOS>MOLECULE
3Y4
   68    72     1     0     0
SMALL
bcc


@<TRIPOS>ATOM
      1 C17          0.0000     0.0000     0.0000 c3         1 3Y4       0.003900
      2 C16          1.5070     0.0000     0.0000 ca         1 3Y4      -0.040300
      3 C20         -0.5100     1.4210     0.2510 c3         1 3Y4      -0.088400
      4 C23         -2.0140     1.4400     0.1510 c          1 3Y4       0.583100
      5 C12          2.0210     0.0760     3.6630 cc         1 3Y4       0.250400
      6 C27         -4.1280     2.6420     0.0090 c3         1 3Y4       0.022400
      7 C33         -3.5720     1.1620     2.9610 ca         1 3Y4      -0.093000
      8 Cl1          4.4470    -0.0140    -2.7010 cl         1 3Y4      -0.000400
      9 C2           3.5820    -0.0060    -1.1960 ca         1 3Y4      -0.023600
     10 C3           4.2760     0.0000     0.0010 ca         1 3Y4      -0.089000
     11 C5           3.5890    -0.0000     1.1990 ca         1 3Y4      -0.090000
     12 C7           2.2010     0.0000     1.2030 ca         1 3Y4      -0.166200
     13 N8           1.5020     0.0010     2.4180 na         1 3Y4       0.476500
     14 N9           0.1100    -0.0770     2.6020 nc         1 3Y4      -0.394800
     15 N10         -0.0970    -0.0440     3.8750 nd         1 3Y4       0.028000
     16 N11          1.0200     0.0400     4.5040 nd         1 3Y4      -0.382000
     17 C14          2.1970    -0.0060    -1.1950 ca         1 3Y4      -0.086000
     18 O24         -2.6250     0.4020     0.0060 o          1 3Y4      -0.613100
     19 N25         -2.6800     2.6090     0.2230 ns         1 3Y4      -0.223900
     20 C29         -4.8450     2.6060     1.3610 c3         1 3Y4       0.019900
     21 C32         -4.5880     1.2810     2.0300 ca         1 3Y4      -0.095300
     22 C35         -3.3360    -0.0540     3.5760 ca         1 3Y4      -0.093000
     23 C37         -4.1190    -1.1490     3.2630 ca         1 3Y4      -0.100000
     24 C39         -5.1380    -1.0290     2.3370 ca         1 3Y4      -0.093000
     25 C41         -5.3660     0.1830     1.7140 ca         1 3Y4      -0.093000
     26 C43         -4.4990     3.9060    -0.7230 cc         1 3Y4       0.170800
     27 N44         -3.6280     4.8170    -1.2060 na         1 3Y4       0.273100
     28 C46         -4.3710     5.8130    -1.8010 cc         1 3Y4      -0.357600
     29 C47         -5.6780     5.4610    -1.6520 cd         1 3Y4       0.333300
     30 Cl2         -7.0500     6.3610    -2.2170 cl         1 3Y4      -0.055000
     31 N49         -5.7170     4.2930    -0.9970 nd         1 3Y4      -0.582000
     32 C50         -3.8520     7.0260    -2.4690 ca         1 3Y4      -0.011000
     33 C51         -2.8330     7.7710    -1.8740 ca         1 3Y4      -0.075000
     34 C53         -2.3520     8.9010    -2.4990 ca         1 3Y4      -0.111000
     35 C55         -2.8800     9.2980    -3.7210 ca         1 3Y4      -0.080400
     36 C56         -3.8950     8.5590    -4.3170 ca         1 3Y4      -0.111000
     37 C58         -4.3770     7.4250    -3.6990 ca         1 3Y4      -0.075000
     38 N60         -2.3890    10.4470    -4.3530 ns         1 3Y4      -0.007100
     39 C62         -1.0880    10.7780    -4.2330 c          1 3Y4       0.668100
     40 O63         -0.3230    10.0350    -3.6530 o          1 3Y4      -0.649000
     41 O64         -0.6380    11.9360    -4.7540 os         1 3Y4      -0.427900
     42 C65          0.7740    12.2290    -4.5860 c3         1 3Y4       0.287700
     43 H1          -0.3610    -0.6570     0.7820 hc         1 3Y4       0.064200
     44 H2          -0.3610    -0.3490    -0.9600 hc         1 3Y4       0.064200
     45 H3          -0.2100     1.7430     1.2400 hc         1 3Y4       0.027200
     46 H4          -0.0910     2.0910    -0.4900 hc         1 3Y4       0.027200
     47 H5           3.0710     0.1460     3.9180 h5         1 3Y4       0.040100
     48 H6          -4.4250     1.7830    -0.5800 h1         1 3Y4       0.082700
     49 H8           5.3600    -0.0000    -0.0020 ha         1 3Y4       0.123000
     50 H9           4.1340     0.0020     2.1360 ha         1 3Y4       0.115000
     51 H10          1.6560    -0.0270    -2.1330 ha         1 3Y4       0.130000
     52 H11         -2.1880     3.4530     0.4440 hn         1 3Y4       0.164500
     53 H12         -4.4720     3.4060     1.9890 hc         1 3Y4       0.032700
     54 H13         -5.9100     2.7330     1.2080 hc         1 3Y4       0.032700
     55 H14         -2.5390    -0.1480     4.3030 ha         1 3Y4       0.109000
     56 H15         -3.9370    -2.1010     3.7470 ha         1 3Y4       0.098000
     57 H16         -5.7500    -1.8880     2.0900 ha         1 3Y4       0.109000
     58 H17         -6.1630     0.2760     0.9860 ha         1 3Y4       0.099500
     59 H18         -2.6300     4.7770    -1.1430 hn         1 3Y4       0.124700
     60 H20         -2.4200     7.4610    -0.9210 ha         1 3Y4       0.110000
     61 H21         -1.5610     9.4790    -2.0380 ha         1 3Y4       0.126000
     62 H22         -4.3030     8.8710    -5.2710 ha         1 3Y4       0.126000
     63 H23         -5.1680     6.8490    -4.1640 ha         1 3Y4       0.110000
     64 H24         -3.0080    11.0320    -4.8790 hn         1 3Y4       0.171500
     65 H25          1.0180    13.1440    -5.1110 h1         1 3Y4       0.001367
     66 H26          1.3620    11.4140    -4.9890 h1         1 3Y4       0.001367
     67 H27          0.9950    12.3480    -3.5320 h1         1 3Y4       0.001367
     68 H7          -2.9590     2.0210     3.2060 ha         1 3Y4       0.099500
@<TRIPOS>BOND
     1     1     2 1   
     2     1     3 1   
     3     1    43 1   
     4     1    44 1   
     5     2    12 ar  
     6     2    17 ar  
     7     3     4 1   
     8     3    45 1   
     9     3    46 1   
    10     4    18 2   
    11     4    19 1   
    12     5    13 1   
    13     5    16 2   
    14     5    47 1   
    15     6    19 1   
    16     6    20 1   
    17     6    26 1   
    18     6    48 1   
    19     7    21 ar  
    20     7    22 ar  
    21     7    68 1   
    22     8     9 1   
    23     9    10 ar  
    24     9    17 ar  
    25    10    11 ar  
    26    10    49 1   
    27    11    12 ar  
    28    11    50 1   
    29    12    13 1   
    30    13    14 1   
    31    14    15 2   
    32    15    16 1   
    33    17    51 1   
    34    19    52 1   
    35    20    21 1   
    36    20    53 1   
    37    20    54 1   
    38    21    25 ar  
    39    22    23 ar  
    40    22    55 1   
    41    23    24 ar  
    42    23    56 1   
    43    24    25 ar  
    44    24    57 1   
    45    25    58 1   
    46    26    27 1   
    47    26    31 2   
    48    27    28 1   
    49    27    59 1   
    50    28    29 2   
    51    28    32 1   
    52    29    30 1   
    53    29    31 1   
    54    32    33 ar  
    55    32    37 ar  
    56    33    34 ar  
    57    33    60 1   
    58    34    35 ar  
    59    34    61 1   
    60    35    36 ar  
    61    35    38 1   
    62    36    37 ar  
    63    36    62 1   
    64    37    63 1   
    65    38    39 1   
    66    38    64 1   
    67    39    40 2   
    68    39    41 1   
    69    41    42 1   
    70    42    65 1   
    71    42    66 1   
    72    42    67 1   
@<TRIPOS>SUBSTRUCTURE
     1 3Y4         1 TEMP              0 ****  ****    0 ROOT
