@<TRIPOS>MOLECULE
molecule
   64    69     1     0     0
SMALL
bcc


@<TRIPOS>ATOM
      1 N14          0.0000     0.0000     0.0000 nc         1 3Y5      -0.671000
      2 C13          1.3490     0.0000     0.0000 cc         1 3Y5       0.402800
      3 C18          4.2560     0.6970    -2.2620 ca         1 3Y5      -0.053000
      4 C17          1.8330    -0.6910    -2.3370 ca         1 3Y5      -0.128000
      5 C16          2.2230     0.0000    -1.1980 ca         1 3Y5      -0.067500
      6 C19          3.4400     0.6930    -1.1720 ca         1 3Y5      -0.162000
      7 C20         -3.0400    -0.3440     3.7650 c          1 3Y5       0.788100
      8 C23         -4.2930    -0.7400     5.8170 c3         1 3Y5       0.176300
      9 C24         -4.1290    -0.4950     7.2960 ca         1 3Y5      -0.095300
     10 C12          1.7650     0.0000     1.2950 cd         1 3Y5      -0.117200
     11 C27         -3.8310    -0.0460    10.0130 ca         1 3Y5      -0.096000
     12 C1          -4.5560     1.7390     2.4580 ca         1 3Y5      -0.111000
     13 C2          -4.0670     1.1150     1.3260 ca         1 3Y5      -0.079300
     14 C3          -4.9280     0.4290     0.4890 ca         1 3Y5      -0.111000
     15 C4          -6.2760     0.3660     0.7850 ca         1 3Y5      -0.120500
     16 C5          -6.7640     0.9900     1.9180 ca         1 3Y5      -0.129000
     17 C6          -5.9040     1.6750     2.7560 ca         1 3Y5      -0.120500
     18 C7          -2.5970     1.1840     1.0020 c3         1 3Y5      -0.043100
     19 C8          -1.8760     0.0020     1.6530 c3         1 3Y5       0.128400
     20 N9          -1.9580     0.1220     3.1110 ns         1 3Y5      -0.612900
     21 C10         -0.4300     0.0010     1.2310 cd         1 3Y5       0.406800
     22 N11          0.6380     0.0010     2.0690 na         1 3Y5      -0.293900
     23 Cl           3.4080    -0.0000     1.8560 cl         1 3Y5      -0.046400
     24 N21         -3.1170    -0.2330     5.1060 ns         1 3Y5      -0.596900
     25 O22         -3.9490    -0.8650     3.1460 o          1 3Y5      -0.628100
     26 C25         -4.4000     0.7590     7.8260 ca         1 3Y5       0.021800
     27 C26         -4.2490     0.9820     9.1880 ca         1 3Y5      -0.139000
     28 C28         -3.5680    -1.2960     9.4830 ca         1 3Y5       0.024400
     29 C29         -3.7180    -1.5200     8.1250 ca         1 3Y5      -0.090000
     30 Cl2         -3.0510    -2.5860    10.5220 cl         1 3Y5      -0.083400
     31 N31         -4.8230     1.8010     6.9880 na         1 3Y5      -0.002500
     32 C32         -5.1180     3.0700     7.3410 cd         1 3Y5       0.410400
     33 N33         -5.4630     3.7060     6.2510 nc         1 3Y5      -0.403000
     34 N34         -5.4060     2.9250     5.2340 nc         1 3Y5      -0.005000
     35 N35         -5.0250     1.7480     5.5960 nd         1 3Y5      -0.195800
     36 C36          3.8770     0.0120    -3.4220 ca         1 3Y5      -0.257900
     37 C37          2.6550    -0.6880    -3.4580 ca         1 3Y5      -0.020200
     38 N38          2.5600    -1.2550    -4.7030 na         1 3Y5      -0.050100
     39 N39          3.6940    -0.9210    -5.4490 nc         1 3Y5      -0.525100
     40 C40          4.4970    -0.1770    -4.7340 cd         1 3Y5       0.601800
     41 N41          5.7260     0.3430    -5.1490 nv         1 3Y5      -1.012800
     42 H53          5.1950     1.2350    -2.2340 ha         1 3Y5       0.134000
     43 H52          0.9500    -1.3180    -2.3140 ha         1 3Y5       0.146000
     44 H54          3.7330     1.2320    -0.2790 ha         1 3Y5       0.138000
     45 H56         -5.1780    -0.2270     5.4620 h1         1 3Y5       0.079200
     46 H57         -4.3940    -1.8030     5.6360 h1         1 3Y5       0.079200
     47 H59         -3.7130     0.1270    11.0760 ha         1 3Y5       0.158000
     48 H42         -3.8820     2.2770     3.1140 ha         1 3Y5       0.122000
     49 H43         -4.5450    -0.0600    -0.3990 ha         1 3Y5       0.122000
     50 H44         -6.9500    -0.1710     0.1300 ha         1 3Y5       0.133500
     51 H45         -7.8210     0.9400     2.1500 ha         1 3Y5       0.121000
     52 H46         -6.2870     2.1640     3.6430 ha         1 3Y5       0.133500
     53 H48         -2.4610     1.1430    -0.0720 hc         1 3Y5       0.064200
     54 H47         -2.1860     2.1120     1.3830 hc         1 3Y5       0.064200
     55 H49         -2.3440    -0.9240     1.3410 h1         1 3Y5       0.112700
     56 H50         -1.2260     0.5800     3.6180 hn         1 3Y5       0.295500
     57 H51          0.6060     0.0010     3.0690 hn         1 3Y5       0.302700
     58 H55         -2.3510     0.1540     5.6210 hn         1 3Y5       0.301500
     59 H58         -4.4570     1.9600     9.6040 ha         1 3Y5       0.144000
     60 H60         -3.5110    -2.5000     7.7130 ha         1 3Y5       0.163000
     61 H61         -5.0760     3.4850     8.3410 h5         1 3Y5       0.083100
     62 H62          1.7970    -1.8170    -5.0280 hn         1 3Y5       0.334700
     63 H63          5.8060     1.3130    -5.3800 hn         1 3Y5       0.438300
     64 H64          6.5180    -0.2620    -5.2480 hn         1 3Y5       0.438300
@<TRIPOS>BOND
     1    33    32 2
     2    33    34 1
     3    32    31 1
     4    34    35 2
     5    31    35 1
     6    31    26 1
     7    23    10 1
     8    26    27 ar
     9    26     9 ar
    10    27    11 ar
    11    12    17 ar
    12    12    13 ar
    13    22    10 1
    14    22    21 1
    15    18    13 1
    16    18    19 1
    17    10     2 2
    18    17    16 ar
    19     9     8 1
    20     9    29 ar
    21     8    24 1
    22    11    28 ar
    23    13    14 ar
    24    20    19 1
    25    20     7 1
    26    21    19 1
    27    21     1 2
    28    29    28 ar
    29    28    30 1
    30    24     7 1
    31    16    15 ar
    32     2     1 1
    33     2     5 1
    34     7    25 2
    35    14    15 ar
    36     4     5 ar
    37     4    37 ar
    38     5     6 ar
    39    38    37 1
    40    38    39 1
    41    37    36 ar
    42     6     3 ar
    43    39    40 2
    44    36     3 ar
    45    36    40 1
    46    40    41 1
    47     3    42 1
    48     4    43 1
    49     6    44 1
    50     8    45 1
    51     8    46 1
    52    11    47 1
    53    12    48 1
    54    14    49 1
    55    15    50 1
    56    16    51 1
    57    17    52 1
    58    18    53 1
    59    18    54 1
    60    19    55 1
    61    20    56 1
    62    22    57 1
    63    24    58 1
    64    27    59 1
    65    29    60 1
    66    32    61 1
    67    38    62 1
    68    41    63 1
    69    41    64 1
@<TRIPOS>SUBSTRUCTURE
     1 3Y5         1 TEMP              0 ****  ****    0 ROOT
