@<TRIPOS>MOLECULE
3Y5
   64    69     1     0     0
SMALL
bcc


@<TRIPOS>ATOM
      1 N14          0.0000     0.0000     0.0000 nc         1 3Y5      -0.581000
      2 C13          1.3490     0.0000     0.0000 cc         1 3Y5       0.375800
      3 C18          4.2560     0.6970    -2.2620 ca         1 3Y5      -0.012000
      4 C17          1.8330    -0.6910    -2.3370 ca         1 3Y5      -0.094000
      5 C16          2.2230     0.0000    -1.1980 ca         1 3Y5      -0.064500
      6 C19          3.4400     0.6930    -1.1720 ca         1 3Y5      -0.153000
      7 C20         -3.0400    -0.3440     3.7650 c          1 3Y5       0.588100
      8 C23         -4.2930    -0.7400     5.8170 c3         1 3Y5       0.093300
      9 C24         -4.1290    -0.4950     7.2960 ca         1 3Y5      -0.074300
     10 C12          1.7650     0.0000     1.2950 cd         1 3Y5      -0.392200
     11 C27         -3.8310    -0.0460    10.0130 ca         1 3Y5      -0.077000
     12 C1          -4.5560     1.7390     2.4580 ca         1 3Y5      -0.087500
     13 C2          -4.0670     1.1150     1.3260 ca         1 3Y5      -0.086300
     14 C3          -4.9280     0.4290     0.4890 ca         1 3Y5      -0.087500
     15 C4          -6.2760     0.3660     0.7850 ca         1 3Y5      -0.101500
     16 C5          -6.7640     0.9900     1.9180 ca         1 3Y5      -0.103000
     17 C6          -5.9040     1.6750     2.7560 ca         1 3Y5      -0.101500
     18 C7          -2.5970     1.1840     1.0020 c3         1 3Y5       0.016900
     19 C8          -1.8760     0.0020     1.6530 c3         1 3Y5       0.041400
     20 N9          -1.9580     0.1220     3.1110 ns         1 3Y5      -0.240900
     21 C10         -0.4300     0.0010     1.2310 cd         1 3Y5       0.178800
     22 N11          0.6380     0.0010     2.0690 na         1 3Y5       0.257100
     23 Cl           3.4080    -0.0000     1.8560 cl         1 3Y5       0.059600
     24 N21         -3.1170    -0.2330     5.1060 ns         1 3Y5      -0.208900
     25 O22         -3.9490    -0.8650     3.1460 o          1 3Y5      -0.669100
     26 C25         -4.4000     0.7590     7.8260 ca         1 3Y5      -0.149200
     27 C26         -4.2490     0.9820     9.1880 ca         1 3Y5      -0.096000
     28 C28         -3.5680    -1.2960     9.4830 ca         1 3Y5      -0.031600
     29 C29         -3.7180    -1.5200     8.1250 ca         1 3Y5      -0.071000
     30 Cl2         -3.0510    -2.5860    10.5220 cl         1 3Y5       0.006600
     31 N31         -4.8230     1.8010     6.9880 na         1 3Y5       0.467500
     32 C32         -5.1180     3.0700     7.3410 cc         1 3Y5       0.256400
     33 N33         -5.4630     3.7060     6.2510 nd         1 3Y5      -0.380000
     34 N34         -5.4060     2.9250     5.2340 nd         1 3Y5       0.042000
     35 N35         -5.0250     1.7480     5.5960 nc         1 3Y5      -0.396800
     36 C36          3.8770     0.0120    -3.4220 ca         1 3Y5      -0.267900
     37 C37          2.6550    -0.6880    -3.4580 ca         1 3Y5      -0.182200
     38 N38          2.5600    -1.2550    -4.7030 na         1 3Y5       0.419900
     39 N39          3.6940    -0.9210    -5.4490 nc         1 3Y5      -0.656100
     40 C40          4.4970    -0.1770    -4.7340 cd         1 3Y5       0.484800
     41 N41          5.7260     0.3430    -5.1490 nv         1 3Y5      -0.563800
     42 H53          5.1950     1.2350    -2.2340 ha         1 3Y5       0.100000
     43 H52          0.9500    -1.3180    -2.3140 ha         1 3Y5       0.119000
     44 H54          3.7330     1.2320    -0.2790 ha         1 3Y5       0.113000
     45 H56         -5.1780    -0.2270     5.4620 h1         1 3Y5       0.056700
     46 H57         -4.3940    -1.8030     5.6360 h1         1 3Y5       0.056700
     47 H59         -3.7130     0.1270    11.0760 ha         1 3Y5       0.124000
     48 H42         -3.8820     2.2770     3.1140 ha         1 3Y5       0.097500
     49 H43         -4.5450    -0.0600    -0.3990 ha         1 3Y5       0.097500
     50 H44         -6.9500    -0.1710     0.1300 ha         1 3Y5       0.111000
     51 H45         -7.8210     0.9400     2.1500 ha         1 3Y5       0.093000
     52 H46         -6.2870     2.1640     3.6430 ha         1 3Y5       0.111000
     53 H48         -2.4610     1.1430    -0.0720 hc         1 3Y5       0.031200
     54 H47         -2.1860     2.1120     1.3830 hc         1 3Y5       0.031200
     55 H49         -2.3440    -0.9240     1.3410 h1         1 3Y5       0.078700
     56 H50         -1.2260     0.5800     3.6180 hn         1 3Y5       0.153500
     57 H51          0.6060     0.0010     3.0690 hn         1 3Y5       0.123700
     58 H55         -2.3510     0.1540     5.6210 hn         1 3Y5       0.157500
     59 H58         -4.4570     1.9600     9.6040 ha         1 3Y5       0.118000
     60 H60         -3.5110    -2.5000     7.7130 ha         1 3Y5       0.131000
     61 H61         -5.0760     3.4850     8.3410 h5         1 3Y5       0.040100
     62 H62          1.7970    -1.8170    -5.0280 hn         1 3Y5       0.152700
     63 H63          5.8060     1.3130    -5.3800 hn         1 3Y5       0.271300
     64 H64          6.5180    -0.2620    -5.2480 hn         1 3Y5       0.271300
@<TRIPOS>BOND
     1     1     2 1   
     2     1    21 2   
     3     2     5 1   
     4     2    10 2   
     5     3     6 ar  
     6     3    36 ar  
     7     3    42 1   
     8     4     5 ar  
     9     4    37 ar  
    10     4    43 1   
    11     5     6 ar  
    12     6    44 1   
    13     7    20 1   
    14     7    24 1   
    15     7    25 2   
    16     8     9 1   
    17     8    24 1   
    18     8    45 1   
    19     8    46 1   
    20     9    26 ar  
    21     9    29 ar  
    22    10    22 1   
    23    10    23 1   
    24    11    27 ar  
    25    11    28 ar  
    26    11    47 1   
    27    12    13 ar  
    28    12    17 ar  
    29    12    48 1   
    30    13    14 ar  
    31    13    18 1   
    32    14    15 ar  
    33    14    49 1   
    34    15    16 ar  
    35    15    50 1   
    36    16    17 ar  
    37    16    51 1   
    38    17    52 1   
    39    18    19 1   
    40    18    53 1   
    41    18    54 1   
    42    19    20 1   
    43    19    21 1   
    44    19    55 1   
    45    20    56 1   
    46    21    22 1   
    47    22    57 1   
    48    24    58 1   
    49    26    27 ar  
    50    26    31 1   
    51    27    59 1   
    52    28    29 ar  
    53    28    30 1   
    54    29    60 1   
    55    31    32 1   
    56    31    35 1   
    57    32    33 2   
    58    32    61 1   
    59    33    34 1   
    60    34    35 2   
    61    36    37 ar  
    62    36    40 1   
    63    37    38 1   
    64    38    39 1   
    65    38    62 1   
    66    39    40 2   
    67    40    41 1   
    68    41    63 1   
    69    41    64 1   
@<TRIPOS>SUBSTRUCTURE
     1 3Y5         1 TEMP              0 ****  ****    0 ROOT
