@<TRIPOS>MOLECULE
molecule
   57    59     1     0     0
SMALL
bcc


@<TRIPOS>ATOM
      1 C13          0.0000     0.0000     0.0000 ca         1 3Y9      -0.086000
      2 C15          1.3800     0.0000     0.0000 ca         1 3Y9      -0.143000
      3 C17         -2.1730     0.0070     1.2170 c          1 3Y9       0.664700
      4 C20         -4.3070     0.0130     2.3950 c3         1 3Y9       0.019700
      5 C21         -4.8120    -0.5970     3.7040 c3         1 3Y9      -0.065400
      6 N1          10.9000     3.0100     2.6120 nc         1 3Y9      -0.609100
      7 C6           7.6400     2.8820     1.1690 cc         1 3Y9      -0.049600
      8 C7           8.4090     2.7870     0.0720 cd         1 3Y9      -0.121000
      9 C8           9.7970     2.8270     0.5270 cd         1 3Y9      -0.249600
     10 C9           9.7510     2.9500     1.9230 cc         1 3Y9       0.163100
     11 C14          0.0120    -0.0050     2.4140 ca         1 3Y9      -0.086000
     12 C16          1.3920    -0.0000     2.4000 ca         1 3Y9      -0.143000
     13 C2          12.0620     2.9570     2.0030 cd         1 3Y9       0.333800
     14 N3          12.1670     2.8380     0.6490 ns         1 3Y9      -0.472400
     15 C4          11.0530     2.7710    -0.1160 c          1 3Y9       0.746100
     16 N5           8.4360     2.9810     2.2830 na         1 3Y9      -0.146100
     17 O10         11.1320     2.6640    -1.3280 o          1 3Y9      -0.611500
     18 N11         13.2090     3.0250     2.7540 nz         1 3Y9      -0.693600
     19 C12         -0.6950     0.0000     1.2100 ca         1 3Y9      -0.108600
     20 O18         -2.7860     0.0110     0.1680 o          1 3Y9      -0.619100
     21 N19         -2.8410     0.0070     2.3880 ns         1 3Y9      -0.525900
     22 C22         -4.4130    -2.0730     3.7670 c3         1 3Y9      -0.171400
     23 C23         -4.9110    -2.6740     5.0550 c          1 3Y9       0.887600
     24 O24         -4.6770    -3.9670     5.3290 o          1 3Y9      -0.808800
     25 O25         -5.5230    -1.9910     5.8430 o          1 3Y9      -0.808800
     26 C26         -4.8040     1.4310     2.2760 c          1 3Y9       0.888600
     27 O27         -6.1220     1.6800     2.2620 o          1 3Y9      -0.788800
     28 O28         -4.0150     2.3430     2.1940 o          1 3Y9      -0.788800
     29 C29          6.1320     2.8830     1.1770 c3         1 3Y9      -0.020100
     30 C30          5.6220     1.4410     1.1800 c3         1 3Y9      -0.083400
     31 C31          4.0920     1.4420     1.1870 c3         1 3Y9      -0.078400
     32 C32          3.5820    -0.0000     1.1900 c3         1 3Y9      -0.029100
     33 C33          2.0740     0.0000     1.1970 ca         1 3Y9      -0.097300
     34 H1          -0.5430    -0.0000    -0.9380 ha         1 3Y9       0.150500
     35 H2           1.9210     0.0000    -0.9390 ha         1 3Y9       0.118000
     36 H3          -4.6740    -0.5700     1.5600 h1         1 3Y9       0.082700
     37 H4          -4.3740    -0.0690     4.5420 hc         1 3Y9       0.068200
     38 H5          -5.8910    -0.5130     3.7480 hc         1 3Y9       0.068200
     39 H6           8.0660     2.6960    -0.9510 ha         1 3Y9       0.181000
     40 H7          -0.5220    -0.0050     3.3560 ha         1 3Y9       0.150500
     41 H8           1.9420    -0.0020     3.3340 ha         1 3Y9       0.118000
     42 H9          13.0700     2.8010     0.2190 hn         1 3Y9       0.322500
     43 H10          8.1010     3.0630     3.2230 hn         1 3Y9       0.311700
     44 H11         12.9690     3.1070     3.7220 hn         1 3Y9       0.447467
     45 H12         13.7490     2.1950     2.6130 hn         1 3Y9       0.447467
     46 H13         -2.3370     0.0400     3.2520 hn         1 3Y9       0.307500
     47 H14         -3.3340    -2.1570     3.7220 hc         1 3Y9       0.033700
     48 H15         -4.8520    -2.6010     2.9290 hc         1 3Y9       0.033700
     49 H18          5.7670     3.3940     0.2950 hc         1 3Y9       0.066700
     50 H19          5.7760     3.3940     2.0640 hc         1 3Y9       0.066700
     51 H20          5.9880     0.9310     2.0630 hc         1 3Y9       0.045200
     52 H21          5.9790     0.9300     0.2940 hc         1 3Y9       0.045200
     53 H22          3.7350     1.9520     2.0730 hc         1 3Y9       0.051700
     54 H23          3.7270     1.9520     0.3040 hc         1 3Y9       0.051700
     55 H24          3.9390    -0.5110     0.3040 hc         1 3Y9       0.042200
     56 H25          3.9470    -0.5110     2.0730 hc         1 3Y9       0.042200
     57 H113        13.7430     3.8240     2.4760 hn         1 3Y9       0.447467
@<TRIPOS>BOND
     1    18    13 1   
     2    14    13 1   
     3    14    15 1   
     4    13     6 2   
     5    17    15 2   
     6    15     9 1   
     7     6    10 1   
     8     9    10 2   
     9     9     8 1   
    10    10    16 1   
    11     8     7 2   
    12    16     7 1   
    13     7    29 1   
    14    29    30 1   
    15    30    31 1   
    16    31    32 1   
    17    27    26 1   
    18    32    33 1   
    19    28    26 1   
    20     2    33 ar  
    21     2     1 ar  
    22    33    12 ar  
    23    26     4 1   
    24     1    19 ar  
    25    12    11 ar  
    26    11    19 ar  
    27    19     3 1   
    28    21     3 1   
    29    21     4 1   
    30     3    20 2   
    31     4     5 1   
    32     5    22 1   
    33    25    23 1   
    34    22    23 1   
    35    23    24 1   
    36     1    34 1   
    37     2    35 1   
    38     4    36 1   
    39     5    37 1   
    40     5    38 1   
    41     8    39 1   
    42    11    40 1   
    43    12    41 1   
    44    14    42 1   
    45    16    43 1   
    46    18    44 1   
    47    18    45 1   
    48    21    46 1   
    49    22    47 1   
    50    22    48 1   
    51    29    49 1   
    52    29    50 1   
    53    30    51 1   
    54    30    52 1   
    55    31    53 1   
    56    31    54 1   
    57    32    55 1   
    58    32    56 1   
    59    57    18 1   
@<TRIPOS>SUBSTRUCTURE
     1 3Y9         1 TEMP              0 ****  ****    0 ROOT
