@<TRIPOS>MOLECULE
molecule
   56    58     1     0     0
SMALL
bcc


@<TRIPOS>ATOM
      1 C13          0.0000     0.0000     0.0000 ca         1 3YA      -0.087500
      2 C14          2.0880     0.0000     1.2120 ca         1 3YA      -0.087500
      3 C16          1.3900    -0.0000     2.4020 ca         1 3YA      -0.143500
      4 N1          -5.4800     2.8740    10.0410 na         1 3YA      -0.661600
      5 C2          -5.1850     2.8670    11.3640 cc         1 3YA       0.558100
      6 N3          -3.9460     2.8670    11.8060 nd         1 3YA      -0.715100
      7 C4          -2.9050     2.8730    10.9650 c          1 3YA       0.732100
      8 S5          -4.5460     2.8720     7.3340 ss         1 3YA      -0.104800
      9 C6          -2.7970     2.8790     7.2020 cc         1 3YA      -0.006400
     10 C7          -2.2310     2.8830     8.3950 cd         1 3YA      -0.095000
     11 C8          -3.1590     2.8810     9.5080 cd         1 3YA      -0.213600
     12 C9          -4.4780     2.8760     9.0910 cc         1 3YA       0.169500
     13 C12          1.3960     0.0000     0.0000 ca         1 3YA      -0.111600
     14 C17          2.1370     0.0000    -1.2790 c          1 3YA       0.665700
     15 O18          3.3530    -0.0000    -1.2760 o          1 3YA      -0.619100
     16 N19          1.4670     0.0010    -2.4470 ns         1 3YA      -0.526900
     17 C20          2.2020     0.0010    -3.7150 c3         1 3YA       0.022700
     18 C21          1.3280    -0.6090    -4.8120 c3         1 3YA      -0.084400
     19 C22          1.0650    -2.0820    -4.4950 c3         1 3YA      -0.173400
     20 C23          0.2030    -2.6830    -5.5770 c          1 3YA       0.903600
     21 O24         -0.1560    -3.9740    -5.5090 o          1 3YA      -0.798800
     22 O25         -0.1630    -2.0010    -6.5040 o          1 3YA      -0.798800
     23 C26          2.5620     1.4160    -4.0870 c          1 3YA       0.887600
     24 O27          3.2430     1.6600    -5.2170 o          1 3YA      -0.774800
     25 O28          2.2380     2.3310    -3.3670 o          1 3YA      -0.774800
     26 C29         -2.0410     2.8780     5.8990 c3         1 3YA      -0.010100
     27 C30         -1.7790     1.4360     5.4600 c3         1 3YA      -0.082400
     28 C31         -1.0120     1.4370     4.1370 c3         1 3YA      -0.078400
     29 C33          0.0060    -0.0050     2.3960 ca         1 3YA      -0.089300
     30 C15         -0.6860    -0.0010     1.1970 ca         1 3YA      -0.143500
     31 H1          -0.5420    -0.0610    -0.9360 ha         1 3YA       0.149500
     32 H2           3.1690    -0.0620     1.2180 ha         1 3YA       0.149500
     33 H3           1.9920    -0.0770     3.2990 ha         1 3YA       0.120500
     34 H5          -1.1560     2.8880     8.5310 ha         1 3YA       0.183000
     35 H6          -6.7530     2.0260    12.1550 hn         1 3YA       0.446467
     36 H7          -6.7930     3.6600    12.1230 hn         1 3YA       0.446467
     37 H8           0.4660     0.0220    -2.4490 hn         1 3YA       0.309500
     38 H9           3.1070    -0.5850    -3.6070 h1         1 3YA       0.084700
     39 H10          0.3850    -0.0770    -4.8610 hc         1 3YA       0.067200
     40 H11          1.8370    -0.5300    -5.7650 hc         1 3YA       0.067200
     41 H12          2.1190    -2.2640    -4.3270 hc         1 3YA       0.036200
     42 H13          0.5410    -2.1530    -3.5500 hc         1 3YA       0.036200
     43 H16         -2.6260     3.3850     5.1420 hc         1 3YA       0.066200
     44 H17         -1.0960     3.3930     6.0300 hc         1 3YA       0.066200
     45 H18         -1.1940     0.9290     6.2170 hc         1 3YA       0.044200
     46 H19         -2.7240     0.9220     5.3300 hc         1 3YA       0.044200
     47 H20         -1.5970     1.9440     3.3800 hc         1 3YA       0.052200
     48 H21         -0.0670     1.9510     4.2670 hc         1 3YA       0.052200
     49 H24         -1.7690    -0.0260     1.1980 ha         1 3YA       0.120500
     50 H25         -6.4370     2.8740     9.7490 hn         1 3YA       0.437800
     51 C32         -0.7510    -0.0060     3.6980 c3         1 3YA      -0.029100
     52 H22         -1.6950    -0.5200     3.5670 hc         1 3YA       0.041700
     53 H23         -0.1660    -0.5140     4.4560 hc         1 3YA       0.041700
     54 N11         -6.2100     2.8600    12.2710 nz         1 3YA      -0.712600
     55 H113        -5.8360     2.8870    13.1990 hn         1 3YA       0.446467
     56 O10         -1.7630     2.8730    11.3940 o          1 3YA      -0.524100
@<TRIPOS>BOND
     1    15    14 2
     2    25    23 1
     3    22    20 1
     4    21    20 1
     5    14    13 1
     6    14    16 1
     7    20    19 1
     8    23    17 1
     9    23    24 1
    10    17    16 1
    11    17    18 1
    12    13     2 ar
    13    13     1 ar
    14     2     3 ar
    15     1    30 ar
    16     3    29 ar
    17    18    19 1
    18    30    29 ar
    19    29    51 1
    20    51    28 1
    21    28    27 1
    22    27    26 1
    23    26     9 1
    24     9     8 1
    25     9    10 2
    26     8    12 1
    27    10    11 1
    28    11    12 2
    29    11     7 1
    30    12     4 1
    31     4     5 1
    32     7    56 2
    33     7     6 1
    34     5     6 2
    35     5    54 1
    36     1    31 1
    37     2    32 1
    38     3    33 1
    39    10    34 1
    40    54    35 1
    41    54    36 1
    42    16    37 1
    43    17    38 1
    44    18    39 1
    45    18    40 1
    46    19    41 1
    47    19    42 1
    48    26    43 1
    49    26    44 1
    50    27    45 1
    51    27    46 1
    52    28    47 1
    53    28    48 1
    54    51    52 1
    55    51    53 1
    56    30    49 1
    57     4    50 1
    58    55    54 1
@<TRIPOS>SUBSTRUCTURE
     1 3YA         1 TEMP              0 ****  ****    0 ROOT
