@<TRIPOS>MOLECULE
molecule
   54    56     1     0     0
SMALL
bcc


@<TRIPOS>ATOM
      1 N1           0.0000     0.0000     0.0000 nc         1 3YB      -0.602100
      2 C2           1.3130     0.0000     0.0000 cd         1 3YB       0.339800
      3 N3           2.0380     0.0000     1.1540 ns         1 3YB      -0.472400
      4 C4           1.4100    -0.0000     2.3520 c          1 3YB       0.745100
      5 N5          -2.0280     0.0000     1.4390 na         1 3YB      -0.143100
      6 C6          -2.2120     0.0000     2.7990 cc         1 3YB      -0.042600
      7 C7          -1.0180     0.0000     3.4160 cd         1 3YB      -0.123000
      8 C8          -0.0010     0.0000     2.3660 cd         1 3YB      -0.243600
      9 C9          -0.6950     0.0000     1.1470 cc         1 3YB       0.159100
     10 O10          2.0460    -0.0000     3.3920 o          1 3YB      -0.608500
     11 N11          1.9770     0.0000    -1.2010 nz         1 3YB      -0.696600
     12 C12         -8.2200    -2.9740     4.9050 cd         1 3YB      -0.123000
     13 C13         -9.3160    -2.9610     5.7200 cc         1 3YB      -0.057700
     14 S14         -8.7900    -2.8150     7.3910 ss         1 3YB      -0.056800
     15 C15         -7.1500    -2.7790     6.9200 cc         1 3YB      -0.134100
     16 C16         -7.0320    -2.8720     5.5910 cd         1 3YB      -0.135300
     17 O18        -10.9630    -3.1500     4.0860 o          1 3YB      -0.622100
     18 N19        -11.7100    -3.0280     6.1750 ns         1 3YB      -0.523900
     19 C20        -13.1020    -3.1190     5.7290 c3         1 3YB       0.081700
     20 C21        -13.9650    -3.6850     6.8590 c3         1 3YB      -0.193400
     21 C22        -13.5390    -5.1250     7.1550 c3         1 3YB      -0.143400
     22 C23        -14.3880    -5.6820     8.2680 c          1 3YB       0.891600
     23 O24        -14.1910    -6.9380     8.6980 o          1 3YB      -0.810800
     24 O25        -15.2460    -4.9970     8.7730 o          1 3YB      -0.810800
     25 C26        -13.6010    -1.7480     5.3540 c          1 3YB       0.888600
     26 O27        -14.8590    -1.5890     4.9140 o          1 3YB      -0.793800
     27 O28        -12.8690    -0.7920     5.4510 o          1 3YB      -0.793800
     28 C29         -3.5480     0.0000     3.4950 c3         1 3YB      -0.022100
     29 C30         -3.9430    -1.4360     3.8420 c3         1 3YB      -0.083400
     30 C31         -5.3000    -1.4360     4.5480 c3         1 3YB      -0.079400
     31 C32         -5.6950    -2.8730     4.8950 c3         1 3YB      -0.009100
     32 H1           3.0380     0.0000     1.1150 hn         1 3YB       0.323500
     33 H2          -2.7640     0.0000     0.7610 hn         1 3YB       0.314700
     34 H3          -0.8430     0.0000     4.4850 ha         1 3YB       0.182000
     35 H4           2.5510    -0.8160    -1.2650 hn         1 3YB       0.450133
     36 H5           1.3120     0.0000    -1.9500 hn         1 3YB       0.450133
     37 H6          -8.2800    -3.0560     3.8270 ha         1 3YB       0.163000
     38 H7          -6.3160    -2.6920     7.6060 h4         1 3YB       0.155000
     39 H8         -11.5040    -2.9140     7.1480 hn         1 3YB       0.315500
     40 H9         -13.1630    -3.7730     4.8670 h1         1 3YB       0.055700
     41 H10        -14.0240    -4.1100     5.8640 hc         1 3YB       0.104200
     42 H11        -14.9820    -3.3580     7.0350 hc         1 3YB       0.104200
     43 H12        -13.6680    -5.7300     6.2650 hc         1 3YB       0.025200
     44 H13        -12.4970    -5.1400     7.4530 hc         1 3YB       0.025200
     45 H16         -4.2960     0.4320     2.8400 hc         1 3YB       0.068200
     46 H17         -3.4820     0.5860     4.4030 hc         1 3YB       0.068200
     47 H18         -4.0090    -2.0230     2.9330 hc         1 3YB       0.044700
     48 H19         -3.1960    -1.8680     4.4970 hc         1 3YB       0.044700
     49 H20         -5.2350    -0.8500     5.4560 hc         1 3YB       0.053200
     50 H21         -6.0480    -1.0050     3.8930 hc         1 3YB       0.053200
     51 H22         -5.7620    -3.4590     3.9860 hc         1 3YB       0.041200
     52 H23         -4.9480    -3.3050     5.5490 hc         1 3YB       0.041200
     53 H113         2.5340     0.8290    -1.2740 hn         1 3YB       0.450133
     54 C17        -10.7100    -3.0530     5.2730 c          1 3YB       0.686700
@<TRIPOS>BOND
     1    24    22 1   
     2    22    23 1   
     3    22    21 1   
     4    21    20 1   
     5    20    19 1   
     6    17    54 2   
     7    19    18 1   
     8    19    25 1   
     9    54    18 1   
    10    54    13 1   
    11    13    14 1   
    12    13    12 2   
    13    14    15 1   
    14    26    25 1   
    15    25    27 1   
    16    12    16 1   
    17    15    16 2   
    18    16    31 1   
    19    31    30 1   
    20    30    29 1   
    21    29    28 1   
    22    28     6 1   
    23     6     5 1   
    24     6     7 2   
    25     5     9 1   
    26     7     8 1   
    27     9     8 2   
    28     9     1 1   
    29     8     4 1   
    30     1     2 2   
    31     4    10 2   
    32     4     3 1   
    33     2     3 1   
    34     2    11 1   
    35     3    32 1   
    36     5    33 1   
    37     7    34 1   
    38    11    35 1   
    39    11    36 1   
    40    12    37 1   
    41    15    38 1   
    42    18    39 1   
    43    19    40 1   
    44    20    41 1   
    45    20    42 1   
    46    21    43 1   
    47    21    44 1   
    48    28    45 1   
    49    28    46 1   
    50    29    47 1   
    51    29    48 1   
    52    30    49 1   
    53    30    50 1   
    54    31    51 1   
    55    31    52 1   
    56    53    11 1   
@<TRIPOS>SUBSTRUCTURE
     1 3YB         1 TEMP              0 ****  ****    0 ROOT
