@<TRIPOS>MOLECULE
molecule
   54    56     1     0     0
SMALL
bcc


@<TRIPOS>ATOM
      1 N1           0.0000     0.0000     0.0000 nc         1 3YC      -0.605100
      2 C2           1.3140     0.0000     0.0000 cd         1 3YC       0.336800
      3 N3           2.0400     0.0000     1.1540 ns         1 3YC      -0.472400
      4 C4           1.4120    -0.0010     2.3520 c          1 3YC       0.746100
      5 N5          -2.0270    -0.0020     1.4400 na         1 3YC      -0.144100
      6 C6          -2.2100    -0.0020     2.8000 cc         1 3YC      -0.045600
      7 C7          -1.0170    -0.0010     3.4160 cd         1 3YC      -0.122000
      8 C8          -0.0010    -0.0010     2.3660 cd         1 3YC      -0.246600
      9 C9          -0.6950    -0.0010     1.1470 cc         1 3YC       0.161100
     10 O10          2.0480    -0.0010     3.3910 o          1 3YC      -0.609500
     11 N11          1.9780     0.0000    -1.2020 nz         1 3YC      -0.694600
     12 C12         -8.2000    -2.9690     4.9750 cd         1 3YC      -0.087000
     13 C13         -9.3210    -2.9470     5.8850 cd         1 3YC      -0.144600
     14 C14         -8.9480    -2.8350     7.1880 cc         1 3YC      -0.063100
     15 S15         -7.2510    -2.7550     7.3270 ss         1 3YC      -0.164800
     16 C16         -7.0270    -2.8800     5.5910 cc         1 3YC      -0.084400
     17 O18        -10.9870    -3.1360     4.2640 o          1 3YC      -0.631100
     18 N19        -11.7170    -3.0110     6.3600 ns         1 3YC      -0.524900
     19 C20        -13.1120    -3.1010     5.9230 c3         1 3YC       0.082700
     20 C21        -13.9660    -3.6630     7.0620 c3         1 3YC      -0.194400
     21 C22        -13.5410    -5.1030     7.3550 c3         1 3YC      -0.143400
     22 C23        -14.3820    -5.6570     8.4760 c          1 3YC       0.890600
     23 O24        -14.1850    -6.9140     8.9060 o          1 3YC      -0.810800
     24 O25        -15.2350    -4.9710     8.9880 o          1 3YC      -0.810800
     25 C26        -13.6110    -1.7280     5.5520 c          1 3YC       0.887600
     26 O27        -14.8730    -1.5670     5.1220 o          1 3YC      -0.790300
     27 O28        -12.8770    -0.7730     5.6410 o          1 3YC      -0.790300
     28 C29         -3.5470    -0.0030     3.4950 c3         1 3YC      -0.021100
     29 C30         -3.9410    -1.4410     3.8420 c3         1 3YC      -0.082400
     30 C31         -5.2970    -1.4410     4.5490 c3         1 3YC      -0.082400
     31 C32         -5.6910    -2.8780     4.8960 c3         1 3YC       0.008900
     32 H1           3.0400     0.0000     1.1150 hn         1 3YC       0.322500
     33 H2          -2.7630    -0.0020     0.7620 hn         1 3YC       0.313700
     34 H3          -0.8410    -0.0010     4.4850 ha         1 3YC       0.182000
     35 H4           1.3130    -0.0000    -1.9500 hn         1 3YC       0.448467
     36 H5           2.5520     0.8170    -1.2660 hn         1 3YC       0.448467
     37 H6          -8.3050    -3.0540     3.9000 ha         1 3YC       0.165000
     38 H7          -9.6350    -2.8000     8.0250 h4         1 3YC       0.187000
     39 H8         -11.5030    -2.8720     7.3270 hn         1 3YC       0.315500
     40 H9         -13.1810    -3.7550     5.0630 h1         1 3YC       0.056700
     41 H10        -14.0340    -4.0880     6.0680 hc         1 3YC       0.104200
     42 H11        -14.9820    -3.3330     7.2440 hc         1 3YC       0.104200
     43 H12        -12.4970    -5.1200     7.6440 hc         1 3YC       0.025200
     44 H13        -13.6800    -5.7080     6.4670 hc         1 3YC       0.025200
     45 H16         -3.4820     0.5830     4.4040 hc         1 3YC       0.068200
     46 H17         -4.2950     0.4280     2.8400 hc         1 3YC       0.068200
     47 H18         -3.1920    -1.8720     4.4960 hc         1 3YC       0.045200
     48 H19         -4.0060    -2.0260     2.9330 hc         1 3YC       0.045200
     49 H20         -6.0460    -1.0100     3.8950 hc         1 3YC       0.054700
     50 H21         -5.2320    -0.8560     5.4580 hc         1 3YC       0.054700
     51 H22         -5.7560    -3.4640     3.9870 hc         1 3YC       0.045700
     52 H23         -4.9430    -3.3090     5.5500 hc         1 3YC       0.045700
     53 H113         2.5680    -0.8060    -1.2570 hn         1 3YC       0.448467
     54 C17        -10.7240    -3.0380     5.4480 c          1 3YC       0.677700
@<TRIPOS>BOND
     1    11     2 1   
     2     3     2 1   
     3     3     4 1   
     4     2     1 2   
     5    10     4 2   
     6     4     8 1   
     7     1     9 1   
     8     8     9 2   
     9     8     7 1   
    10     9     5 1   
    11     7     6 2   
    12     5     6 1   
    13     6    28 1   
    14    28    29 1   
    15    29    30 1   
    16    30    31 1   
    17    27    25 1   
    18    31    16 1   
    19    16    15 1   
    20    16    12 2   
    21    15    14 1   
    22    25    26 1   
    23    25    19 1   
    24    12    13 1   
    25    14    13 2   
    26    13    54 1   
    27    18    54 1   
    28    18    19 1   
    29    54    17 2   
    30    19    20 1   
    31    20    21 1   
    32    23    22 1   
    33    21    22 1   
    34    22    24 1   
    35     3    32 1   
    36     5    33 1   
    37     7    34 1   
    38    11    35 1   
    39    11    36 1   
    40    12    37 1   
    41    14    38 1   
    42    18    39 1   
    43    19    40 1   
    44    20    41 1   
    45    20    42 1   
    46    21    43 1   
    47    21    44 1   
    48    28    45 1   
    49    28    46 1   
    50    29    47 1   
    51    29    48 1   
    52    30    49 1   
    53    30    50 1   
    54    31    51 1   
    55    31    52 1   
    56    53    11 1   
@<TRIPOS>SUBSTRUCTURE
     1 3YC         1 TEMP              0 ****  ****    0 ROOT
