@<TRIPOS>MOLECULE
molecule
   53    54     1     0     0
SMALL
bcc


@<TRIPOS>ATOM
      1 N1           0.0000     0.0000     0.0000 nc         1 3YD      -0.608100
      2 C2           1.3130     0.0000     0.0000 cd         1 3YD       0.332800
      3 N3           2.0390     0.0000     1.1540 ns         1 3YD      -0.472400
      4 C4           1.4110    -0.0000     2.3520 c          1 3YD       0.746100
      5 N5          -2.0270    -0.0000     1.4400 na         1 3YD      -0.145100
      6 C6          -2.2110     0.0010     2.7990 cc         1 3YD      -0.047600
      7 C7          -1.0170     0.0000     3.4160 cd         1 3YD      -0.121000
      8 C8          -0.0020     0.0000     2.3660 cd         1 3YD      -0.246600
      9 C9          -0.6950     0.0000     1.1470 cc         1 3YD       0.160100
     10 O10          2.0470    -0.0010     3.3920 o          1 3YD      -0.609500
     11 N11          1.9770    -0.0010    -1.2020 nz         1 3YD      -0.693600
     12 C12         -7.4470    -4.3080     5.9500 c3         1 3YD      -0.161400
     13 C13         -7.0530    -2.8710     5.6020 c3         1 3YD      -0.063400
     14 C14         -5.6950    -2.8710     4.8960 c3         1 3YD      -0.085400
     15 C15         -5.3010    -1.4350     4.5490 c3         1 3YD      -0.081400
     16 C16         -3.9430    -1.4360     3.8430 c3         1 3YD      -0.082400
     17 C17         -8.7840    -4.3070     6.6450 c          1 3YD       0.659100
     18 O18         -9.3640    -3.2600     6.8440 o          1 3YD      -0.632100
     19 N19         -9.3350    -5.4690     7.0480 ns         1 3YD      -0.531900
     20 C20        -10.6350    -5.4680     7.7240 c3         1 3YD       0.019700
     21 C21        -11.3150    -6.8240     7.5220 c3         1 3YD      -0.064400
     22 C22        -11.6320    -7.0200     6.0380 c3         1 3YD      -0.172400
     23 C23        -12.3010    -8.3560     5.8400 c          1 3YD       0.888600
     24 O24        -12.6720    -8.7440     4.6100 o          1 3YD      -0.813300
     25 O25        -12.5050    -9.0760     6.7880 o          1 3YD      -0.813300
     26 C26        -10.4340    -5.2210     9.1970 c          1 3YD       0.888600
     27 O27        -11.4930    -5.1770    10.0200 o          1 3YD      -0.790300
     28 O28         -9.3200    -5.0610     9.6370 o          1 3YD      -0.790300
     29 C29         -3.5480     0.0010     3.4950 c3         1 3YD      -0.021100
     30 H1           3.0390     0.0000     1.1150 hn         1 3YD       0.322500
     31 H2          -2.7630    -0.0000     0.7620 hn         1 3YD       0.310700
     32 H3          -0.8420     0.0010     4.4850 ha         1 3YD       0.183000
     33 H4           1.3120    -0.0000    -1.9500 hn         1 3YD       0.447467
     34 H5           2.5500    -0.8190    -1.2660 hn         1 3YD       0.447467
     35 H6          -7.5120    -4.8950     5.0420 hc         1 3YD       0.050700
     36 H7          -6.6990    -4.7390     6.6060 hc         1 3YD       0.050700
     37 H8          -7.8000    -2.4400     4.9470 hc         1 3YD       0.058200
     38 H9          -6.9870    -2.2840     6.5110 hc         1 3YD       0.058200
     39 H10         -4.9480    -3.3030     5.5510 hc         1 3YD       0.037200
     40 H11         -5.7610    -3.4580     3.9880 hc         1 3YD       0.037200
     41 H12         -5.2350    -0.8490     5.4570 hc         1 3YD       0.045700
     42 H13         -6.0480    -1.0040     3.8940 hc         1 3YD       0.045700
     43 H14         -3.1960    -1.8670     4.4980 hc         1 3YD       0.046700
     44 H15         -4.0090    -2.0220     2.9340 hc         1 3YD       0.046700
     45 H16         -8.8410    -6.3290     6.9150 hn         1 3YD       0.306500
     46 H17        -11.2580    -4.6860     7.3080 h1         1 3YD       0.080700
     47 H18        -12.2340    -6.8550     8.0940 hc         1 3YD       0.068200
     48 H19        -10.6540    -7.6130     7.8580 hc         1 3YD       0.068200
     49 H20        -10.7120    -6.9890     5.4660 hc         1 3YD       0.032200
     50 H21        -12.2930    -6.2310     5.7020 hc         1 3YD       0.032200
     51 H24         -3.4820     0.5880     4.4030 hc         1 3YD       0.064700
     52 H25         -4.2950     0.4330     2.8400 hc         1 3YD       0.064700
     53 H113         2.5580     0.8110    -1.2620 hn         1 3YD       0.447467
@<TRIPOS>BOND
     1    24    23 1   
     2    23    22 1   
     3    23    25 1   
     4    22    21 1   
     5    18    17 2   
     6    19    20 1   
     7    19    17 1   
     8    21    20 1   
     9    20    26 1   
    10    17    12 1   
    11    12    13 1   
    12    13    14 1   
    13    26    27 1   
    14    26    28 1   
    15    14    15 1   
    16    15    16 1   
    17    16    29 1   
    18    29     6 1   
    19     6     5 1   
    20     6     7 2   
    21     5     9 1   
    22     7     8 1   
    23     9     8 2   
    24     9     1 1   
    25     8     4 1   
    26     1     2 2   
    27     4    10 2   
    28     4     3 1   
    29     2     3 1   
    30     2    11 1   
    31     3    30 1   
    32     5    31 1   
    33     7    32 1   
    34    11    33 1   
    35    11    34 1   
    36    12    35 1   
    37    12    36 1   
    38    13    37 1   
    39    13    38 1   
    40    14    39 1   
    41    14    40 1   
    42    15    41 1   
    43    15    42 1   
    44    16    43 1   
    45    16    44 1   
    46    19    45 1   
    47    20    46 1   
    48    21    47 1   
    49    21    48 1   
    50    22    49 1   
    51    22    50 1   
    52    29    51 1   
    53    29    52 1   
    54    53    11 1   
@<TRIPOS>SUBSTRUCTURE
     1 3YD         1 TEMP              0 ****  ****    0 ROOT
