@<TRIPOS>MOLECULE
molecule
   56    57     1     0     0
SMALL
bcc


@<TRIPOS>ATOM
      1 N1           0.0000     0.0000     0.0000 nc         1 3YE      -0.614100
      2 C2           1.3140     0.0000     0.0000 cd         1 3YE       0.328800
      3 N3           2.0390     0.0000     1.1550 ns         1 3YE      -0.471400
      4 C4           1.4110     0.0010     2.3520 c          1 3YE       0.747100
      5 N5          -2.0270     0.0010     1.4390 na         1 3YE      -0.149100
      6 C6          -2.2110     0.0010     2.8000 cc         1 3YE      -0.053600
      7 C7          -1.0180     0.0020     3.4160 cd         1 3YE      -0.119000
      8 C8          -0.0020     0.0010     2.3650 cd         1 3YE      -0.251600
      9 C9          -0.6950     0.0000     1.1470 cc         1 3YE       0.166100
     10 O10          2.0460     0.0000     3.3920 o          1 3YE      -0.611500
     11 N11          1.9780     0.0000    -1.2010 nz         1 3YE      -0.692600
     12 C12         -8.8050    -4.3060     6.6560 c3         1 3YE      -0.161400
     13 C13         -7.4470    -4.3070     5.9500 c3         1 3YE      -0.063400
     14 C14         -7.0530    -2.8700     5.6020 c3         1 3YE      -0.086400
     15 C17         -9.1930    -5.7210     6.9990 c          1 3YE       0.660100
     16 O18         -8.4570    -6.6390     6.7070 o          1 3YE      -0.631100
     17 N19        -10.3590    -5.9660     7.6290 ns         1 3YE      -0.532900
     18 C20        -10.7360    -7.3420     7.9630 c3         1 3YE       0.021700
     19 C21        -11.6990    -7.3330     9.1520 c3         1 3YE      -0.064400
     20 C22        -10.9750    -6.8000    10.3900 c3         1 3YE      -0.171400
     21 C23        -11.9230    -6.7910    11.5620 c          1 3YE       0.888600
     22 O24        -11.5020    -6.3610    12.7620 o          1 3YE      -0.808800
     23 O25        -13.0610    -7.1710    11.4210 o          1 3YE      -0.808800
     24 C26        -11.4120    -7.9790     6.7760 c          1 3YE       0.888600
     25 O27        -11.8460    -9.2460     6.8510 o          1 3YE      -0.786300
     26 O28        -11.5620    -7.3490     5.7550 o          1 3YE      -0.786300
     27 C29         -3.5480     0.0020     3.4950 c3         1 3YE      -0.020100
     28 C30         -3.9430    -1.4350     3.8430 c3         1 3YE      -0.081400
     29 C16         -5.3000    -1.4350     4.5480 c3         1 3YE      -0.084400
     30 C15         -5.6950    -2.8710     4.8960 c3         1 3YE      -0.079400
     31 H1           3.0390    -0.0000     1.1160 hn         1 3YE       0.321500
     32 H2          -2.7630     0.0010     0.7610 hn         1 3YE       0.309700
     33 H3          -0.8420     0.0020     4.4850 ha         1 3YE       0.181000
     34 H4           1.3130    -0.0000    -1.9490 hn         1 3YE       0.446800
     35 H5           2.5520    -0.8170    -1.2650 hn         1 3YE       0.446800
     36 H6          -8.7390    -3.7190     7.5640 hc         1 3YE       0.051200
     37 H7          -9.5520    -3.8750     6.0010 hc         1 3YE       0.051200
     38 H8          -7.5130    -4.8940     5.0420 hc         1 3YE       0.057700
     39 H9          -6.7000    -4.7380     6.6050 hc         1 3YE       0.057700
     40 H10         -6.9880    -2.2830     6.5100 hc         1 3YE       0.036700
     41 H11         -7.8000    -2.4390     4.9460 hc         1 3YE       0.036700
     42 H12        -10.9850    -5.2120     7.8330 hn         1 3YE       0.307500
     43 H13         -9.8490    -7.9070     8.2200 h1         1 3YE       0.081700
     44 H14        -12.0470    -8.3410     9.3420 hc         1 3YE       0.068700
     45 H15        -12.5460    -6.6950     8.9260 hc         1 3YE       0.068700
     46 H16        -10.6270    -5.7920    10.2000 hc         1 3YE       0.033200
     47 H17        -10.1290    -7.4380    10.6160 hc         1 3YE       0.033200
     48 H20         -3.4820     0.5880     4.4030 hc         1 3YE       0.062200
     49 H21         -4.2950     0.4330     2.8400 hc         1 3YE       0.062200
     50 H22         -3.1960    -1.8660     4.4980 hc         1 3YE       0.049200
     51 H23         -4.0090    -2.0210     2.9350 hc         1 3YE       0.049200
     52 H24         -5.2350    -0.8480     5.4570 hc         1 3YE       0.041700
     53 H25         -6.0470    -1.0030     3.8930 hc         1 3YE       0.041700
     54 H26         -5.7610    -3.4580     3.9880 hc         1 3YE       0.044700
     55 H27         -4.9480    -3.3020     5.5520 hc         1 3YE       0.044700
     56 H113         2.5350     0.8280    -1.2740 hn         1 3YE       0.446800
@<TRIPOS>BOND
     1    22    21 1   
     2    23    21 1   
     3    21    20 1   
     4    16    15 2   
     5    20    19 1   
     6    12    15 1   
     7    12    13 1   
     8    15    17 1   
     9    19    18 1   
    10    26    24 1   
    11    17    18 1   
    12    13    14 1   
    13    18    24 1   
    14    24    25 1   
    15    14    30 1   
    16    30    29 1   
    17    29    28 1   
    18    28    27 1   
    19    27     6 1   
    20     6     5 1   
    21     6     7 2   
    22     5     9 1   
    23     7     8 1   
    24     9     8 2   
    25     9     1 1   
    26     8     4 1   
    27     1     2 2   
    28     4    10 2   
    29     4     3 1   
    30     2     3 1   
    31     2    11 1   
    32     3    31 1   
    33     5    32 1   
    34     7    33 1   
    35    11    34 1   
    36    11    35 1   
    37    12    36 1   
    38    12    37 1   
    39    13    38 1   
    40    13    39 1   
    41    14    40 1   
    42    14    41 1   
    43    17    42 1   
    44    18    43 1   
    45    19    44 1   
    46    19    45 1   
    47    20    46 1   
    48    20    47 1   
    49    27    48 1   
    50    27    49 1   
    51    28    50 1   
    52    28    51 1   
    53    29    52 1   
    54    29    53 1   
    55    30    54 1   
    56    30    55 1   
    57    56    11 1   
@<TRIPOS>SUBSTRUCTURE
     1 3YE         1 TEMP              0 ****  ****    0 ROOT
