@<TRIPOS>MOLECULE
molecule
   51    53     1     0     0
SMALL
bcc


@<TRIPOS>ATOM
      1 N1           0.0000     0.0000     0.0000 nc         1 3YF      -0.597100
      2 C2           1.3130     0.0000     0.0000 cd         1 3YF       0.353800
      3 N3           2.0390     0.0000     1.1540 ns         1 3YF      -0.471400
      4 C4           1.4100     0.0000     2.3520 c          1 3YF       0.742100
      5 N5          -2.0270     0.0000     1.4390 na         1 3YF      -0.143100
      6 C6          -2.2110     0.0010     2.8000 cc         1 3YF      -0.038600
      7 C7          -1.0180     0.0020     3.4160 cd         1 3YF      -0.116000
      8 C8          -0.0020     0.0010     2.3660 cd         1 3YF      -0.229600
      9 C9          -0.6950     0.0010     1.1470 cc         1 3YF       0.151100
     10 O10          2.0470     0.0010     3.3920 o          1 3YF      -0.594500
     11 N11          1.9770    -0.0010    -1.2020 nz         1 3YF      -0.700600
     12 C12         -5.3450    -3.4420     6.0840 cc         1 3YF      -0.125000
     13 C13         -5.7920    -4.7270     6.1990 cd         1 3YF      -0.049700
     14 S14         -6.6600    -5.1670     4.7340 ss         1 3YF      -0.052800
     15 C15         -6.3830    -3.6280     4.0520 cd         1 3YF      -0.141100
     16 C16         -5.6880    -2.8500     4.8910 cc         1 3YF      -0.135300
     17 O18         -4.9630    -5.1930     8.3230 o          1 3YF      -0.619100
     18 N19         -6.0740    -6.8560     7.3530 ns         1 3YF      -0.521900
     19 C20         -5.8640    -7.7290     8.5100 c3         1 3YF       0.079700
     20 C21         -6.9690    -8.7850     8.5600 c3         1 3YF      -0.195400
     21 C22         -8.3160    -8.1040     8.8070 c3         1 3YF      -0.146400
     22 C23         -9.4050    -9.1440     8.8560 c          1 3YF       0.891600
     23 O24        -10.6790    -8.7740     9.0630 o          1 3YF      -0.823800
     24 O25         -9.1320   -10.3120     8.7070 o          1 3YF      -0.823800
     25 C26         -4.5240    -8.4080     8.3900 c          1 3YF       0.889600
     26 O27         -4.1160    -9.2600     9.3430 o          1 3YF      -0.801300
     27 O28         -3.8180    -8.1870     7.4360 o          1 3YF      -0.801300
     28 C29         -3.5480     0.0010     3.4950 c3         1 3YF      -0.025100
     29 C30         -3.9420    -1.4360     3.8420 c3         1 3YF      -0.077400
     30 C31         -5.2990    -1.4360     4.5490 c3         1 3YF      -0.009100
     31 H1           3.0390    -0.0000     1.1160 hn         1 3YF       0.326500
     32 H2          -2.7630    -0.0010     0.7610 hn         1 3YF       0.311700
     33 H3          -0.8430     0.0030     4.4850 ha         1 3YF       0.189000
     34 H4           2.5530     0.8150    -1.2660 hn         1 3YF       0.453133
     35 H5           1.3120     0.0010    -1.9500 hn         1 3YF       0.453133
     36 H6          -4.7810    -2.9360     6.8590 ha         1 3YF       0.166000
     37 H7          -6.7300    -3.3200     3.0730 h4         1 3YF       0.151000
     38 H8          -6.5560    -7.2020     6.5470 hn         1 3YF       0.313500
     39 H9          -5.8880    -7.1380     9.4180 h1         1 3YF       0.054700
     40 H10         -6.7290    -8.2050     9.4430 hc         1 3YF       0.104200
     41 H11         -6.7880    -9.8010     8.8920 hc         1 3YF       0.104200
     42 H12         -8.2840    -7.5710     9.7500 hc         1 3YF       0.022700
     43 H13         -8.5200    -7.4050     8.0050 hc         1 3YF       0.022700
     44 H16         -4.2960     0.4330     2.8400 hc         1 3YF       0.062200
     45 H17         -3.4820     0.5880     4.4030 hc         1 3YF       0.062200
     46 H18         -3.1940    -1.8670     4.4970 hc         1 3YF       0.057700
     47 H19         -4.0080    -2.0220     2.9340 hc         1 3YF       0.057700
     48 H20         -5.2340    -0.8490     5.4570 hc         1 3YF       0.042700
     49 H21         -6.0470    -1.0050     3.8940 hc         1 3YF       0.042700
     50 H113         2.5390    -0.8260    -1.2720 hn         1 3YF       0.453133
     51 C17         -5.5820    -5.6010     7.3570 c          1 3YF       0.683700
@<TRIPOS>BOND
     1    11     2 1   
     2     3     2 1   
     3     3     4 1   
     4     2     1 2   
     5    10     4 2   
     6     4     8 1   
     7     1     9 1   
     8     8     9 2   
     9     8     7 1   
    10     9     5 1   
    11     7     6 2   
    12     5     6 1   
    13     6    28 1   
    14    28    29 1   
    15    29    30 1   
    16    30    16 1   
    17    16    12 1   
    18    16    15 2   
    19    27    25 1   
    20    12    13 2   
    21    15    14 1   
    22    13    14 1   
    23    13    51 1   
    24    25    26 1   
    25    25    19 1   
    26    18    51 1   
    27    18    19 1   
    28    51    17 2   
    29    19    20 1   
    30    20    21 1   
    31    21    22 1   
    32    24    22 1   
    33    22    23 1   
    34     3    31 1   
    35     5    32 1   
    36     7    33 1   
    37    11    34 1   
    38    11    35 1   
    39    12    36 1   
    40    15    37 1   
    41    18    38 1   
    42    19    39 1   
    43    20    40 1   
    44    20    41 1   
    45    21    42 1   
    46    21    43 1   
    47    28    44 1   
    48    28    45 1   
    49    29    46 1   
    50    29    47 1   
    51    30    48 1   
    52    30    49 1   
    53    50    11 1   
@<TRIPOS>SUBSTRUCTURE
     1 3YF         1 TEMP              0 ****  ****    0 ROOT
