@<TRIPOS>MOLECULE
molecule
   51    53     1     0     0
SMALL
bcc


@<TRIPOS>ATOM
      1 N1           0.0000     0.0000     0.0000 nc         1 3YG      -0.599100
      2 C2           1.3140     0.0000     0.0000 cd         1 3YG       0.349800
      3 N3           2.0390     0.0000     1.1540 ns         1 3YG      -0.471400
      4 C4           1.4120    -0.0000     2.3520 c          1 3YG       0.742100
      5 C6          -2.2110     0.0020     2.8000 cc         1 3YG      -0.041600
      6 C8          -0.0010     0.0000     2.3660 cd         1 3YG      -0.232600
      7 N5          -2.0270     0.0020     1.4390 na         1 3YG      -0.144100
      8 C7          -1.0180     0.0010     3.4170 cd         1 3YG      -0.116000
      9 C9          -0.6940     0.0010     1.1480 cc         1 3YG       0.154100
     10 O10          2.0470    -0.0010     3.3930 o          1 3YG      -0.596500
     11 N11          1.9770    -0.0010    -1.2010 nz         1 3YG      -0.698600
     12 C12         -5.3840    -3.4630     6.0250 cd         1 3YG      -0.080000
     13 C13         -5.8840    -4.8160     6.0900 cd         1 3YG      -0.141600
     14 C14         -6.5620    -5.1880     4.9710 cc         1 3YG      -0.059100
     15 S15         -6.6030    -3.9140     3.8370 ss         1 3YG      -0.178800
     16 C16         -5.6910    -2.8470     4.8900 cc         1 3YG      -0.088400
     17 O18         -5.0620    -5.3060     8.2160 o          1 3YG      -0.629100
     18 N19         -6.1770    -6.9550     7.2310 ns         1 3YG      -0.522900
     19 C20         -5.9740    -7.8380     8.3830 c3         1 3YG       0.080700
     20 C21         -7.0850    -8.8910     8.4210 c3         1 3YG      -0.196400
     21 C22         -8.4290    -8.2040     8.6690 c3         1 3YG      -0.145400
     22 C23         -9.5220    -9.2410     8.7070 c          1 3YG       0.891600
     23 O24        -10.7950    -8.8670     8.9130 o          1 3YG      -0.822800
     24 O25         -9.2540   -10.4090     8.5500 o          1 3YG      -0.822800
     25 C26         -4.6370    -8.5230     8.2610 c          1 3YG       0.888600
     26 O27         -4.2350    -9.3840     9.2090 o          1 3YG      -0.798300
     27 O28         -3.9270    -8.2960     7.3100 o          1 3YG      -0.798300
     28 C29         -3.5480     0.0020     3.4950 c3         1 3YG      -0.024100
     29 C30         -3.9430    -1.4340     3.8420 c3         1 3YG      -0.080400
     30 C31         -5.3010    -1.4330     4.5480 c3         1 3YG       0.008900
     31 H1           3.0390     0.0000     1.1150 hn         1 3YG       0.325500
     32 H2          -2.7630     0.0030     0.7610 hn         1 3YG       0.311700
     33 H3          -0.8430     0.0010     4.4860 ha         1 3YG       0.188000
     34 H4           2.5510    -0.8190    -1.2640 hn         1 3YG       0.451467
     35 H5           2.5530     0.8150    -1.2650 hn         1 3YG       0.451467
     36 H6          -4.8220    -2.9950     6.8250 ha         1 3YG       0.167000
     37 H7          -7.0130    -6.1610     4.8200 h4         1 3YG       0.188000
     38 H8          -6.6420    -7.2980     6.4140 hn         1 3YG       0.313500
     39 H9          -5.9990    -7.2530     9.2940 h1         1 3YG       0.055700
     40 H10         -6.8460    -8.3180     9.3090 hc         1 3YG       0.104200
     41 H11         -6.9100    -9.9090     8.7460 hc         1 3YG       0.104200
     42 H12         -8.3970    -7.6780     9.6150 hc         1 3YG       0.023200
     43 H13         -8.6270    -7.4990     7.8700 hc         1 3YG       0.023200
     44 H16         -4.2950     0.4340     2.8400 hc         1 3YG       0.061700
     45 H17         -3.4820     0.5890     4.4040 hc         1 3YG       0.061700
     46 H18         -4.0090    -2.0200     2.9330 hc         1 3YG       0.059700
     47 H19         -3.1960    -1.8660     4.4970 hc         1 3YG       0.059700
     48 H20         -5.2350    -0.8470     5.4570 hc         1 3YG       0.046700
     49 H21         -6.0480    -1.0010     3.8940 hc         1 3YG       0.046700
     50 H113         1.3130     0.0120    -1.9490 hn         1 3YG       0.451467
     51 C17         -5.6790    -5.7030     7.2460 c          1 3YG       0.675700
@<TRIPOS>BOND
     1    11     2 1   
     2     3     2 1   
     3     3     4 1   
     4     2     1 2   
     5    10     4 2   
     6     4     6 1   
     7     1     9 1   
     8     6     9 2   
     9     6     8 1   
    10     9     7 1   
    11     8     5 2   
    12     7     5 1   
    13     5    28 1   
    14    28    29 1   
    15    29    30 1   
    16    30    16 1   
    17    16    12 2   
    18    16    15 1   
    19    27    25 1   
    20    12    13 1   
    21    15    14 1   
    22    25    26 1   
    23    25    19 1   
    24    13    14 2   
    25    13    51 1   
    26    18    51 1   
    27    18    19 1   
    28    51    17 2   
    29    19    20 1   
    30    20    21 1   
    31    21    22 1   
    32    22    24 1   
    33    22    23 1   
    34     3    31 1   
    35     7    32 1   
    36     8    33 1   
    37    11    34 1   
    38    11    35 1   
    39    12    36 1   
    40    14    37 1   
    41    18    38 1   
    42    19    39 1   
    43    20    40 1   
    44    20    41 1   
    45    21    42 1   
    46    21    43 1   
    47    28    44 1   
    48    28    45 1   
    49    29    46 1   
    50    29    47 1   
    51    30    48 1   
    52    30    49 1   
    53    50    11 1   
@<TRIPOS>SUBSTRUCTURE
     1 3YG         1 TEMP              0 ****  ****    0 ROOT
