@<TRIPOS>MOLECULE
3YH
   54    57     1     0     0
SMALL
bcc


@<TRIPOS>ATOM
      1 N1         -0.2990   -1.6580    0.1790 n2        1 3YH     -0.661100
      2 C2          0.5260   -0.7020    0.1450 ce        1 3YH      0.627800
      3 N3          0.6820    0.3760    1.2260 n4        1 3YH     -0.890600
      4 C4          1.4860   -0.4570   -0.9590 ca        1 3YH     -0.222900
      5 C5          2.8640   -0.5590   -0.7280 ca        1 3YH     -0.092000
      6 C6          3.7440   -0.3950   -1.7940 ca        1 3YH     -0.119000
      7 C7          3.2600   -0.1430   -3.0800 ca        1 3YH     -0.033000
      8 C8          1.8830   -0.0450   -3.3130 ca        1 3YH     -0.120500
      9 C9          0.9890   -0.2060   -2.2410 ca        1 3YH     -0.034000
     10 C10         1.3490    0.1650   -4.6540 cc        1 3YH      0.402800
     11 C11         1.9190    0.9070   -5.7900 cc        1 3YH     -0.386200
     12 C12         3.1690    1.6780   -5.8560 c         1 3YH      0.725700
     13 O13         3.7650    2.0840   -4.8430 o         1 3YH     -0.579100
     14 N14         3.6510    1.9190   -7.1470 n         1 3YH     -0.469100
     15 C15         4.6880    2.7760   -7.5250 ca        1 3YH      0.112600
     16 C16         4.9360    2.9560   -8.9120 ca        1 3YH     -0.175000
     17 C17         5.9250    3.8240   -9.3510 ca        1 3YH     -0.073000
     18 C18         6.7160    4.5310   -8.4340 cp        1 3YH     -0.211000
     19 C19         6.4810    4.3510   -7.0630 ca        1 3YH     -0.073000
     20 C20         5.4980    3.4830   -6.6060 ca        1 3YH     -0.175000
     21 C21         7.6650    5.5580   -8.8770 cp        1 3YH      0.126000
     22 C22         7.3810    6.8880   -8.5530 ca        1 3YH     -0.145000
     23 C23         8.2460    7.9170   -8.9280 ca        1 3YH      0.003000
     24 C24         9.4250    7.6170   -9.6180 ca        1 3YH     -0.138000
     25 C25         9.7180    6.3010   -9.9340 ca        1 3YH     -0.001000
     26 C26         8.8470    5.2360   -9.5890 ca        1 3YH     -0.533500
     27 S27         9.2620    3.7670  -10.0890 sy        1 3YH      1.492200
     28 O28         8.2890    3.0060  -10.6960 o         1 3YH     -0.571300
     29 O29        10.5780    3.6520  -10.4900 o         1 3YH     -0.571300
     30 N30         9.3510    2.9160   -8.3860 n4        1 3YH     -0.785500
     31 N39         0.1570   -0.3480   -5.0490 nd        1 3YH     -0.329300
     32 O40        -0.0810   -0.0030   -6.2940 os        1 3YH     -0.065100
     33 C41         0.9690    0.7670   -6.7950 cd        1 3YH      0.315600
     34 HN1        -0.9540   -1.8230    0.9120 hn        1 3YH      0.471400
     35 HN3         0.3560    1.2700    0.8470 hn        1 3YH      0.458467
     36 HN3A        0.1580    0.1640    2.0780 hn        1 3YH      0.458467
     37 H5          3.2570   -0.7990    0.2720 ha        1 3YH      0.141000
     38 H6          4.8300   -0.4780   -1.6260 ha        1 3YH      0.165000
     39 H7          3.9710   -0.0180   -3.9140 ha        1 3YH      0.168000
     40 H9         -0.1010   -0.1550   -2.4100 ha        1 3YH      0.172000
     41 HN14        3.1560    1.4930   -7.9030 hn        1 3YH      0.328500
     42 H16         4.3340    2.4210   -9.6650 ha        1 3YH      0.172500
     43 H17         6.0800    3.9530  -10.4370 ha        1 3YH      0.158000
     44 H19         7.0660    4.9300   -6.3280 ha        1 3YH      0.158000
     45 H20         5.3420    3.3760   -5.5190 ha        1 3YH      0.172500
     46 H22         6.4540    7.1230   -8.0020 ha        1 3YH      0.173000
     47 H23         8.0010    8.9640   -8.6790 ha        1 3YH      0.175000
     48 H24        10.1170    8.4250   -9.9130 ha        1 3YH      0.182000
     49 H25        10.6580    6.0730  -10.4770 ha        1 3YH      0.178000
     50 HN30       10.3150    2.8530   -8.0620 hn        1 3YH      0.457467
     51 HN3B        8.8070    3.4180   -7.6860 hn        1 3YH      0.457467
     52 H41         0.8410    1.1070   -7.8220 h4        1 3YH      0.085100
     53 H33         1.6770    0.4660    1.4590 hn        1 3YH      0.458467
     54 H303        8.9800    1.9700   -8.4450 hn        1 3YH      0.457467
@<TRIPOS>BOND
     1    1    2 2
     2    1   34 1
     3    2    3 1
     4    2    4 1
     5    3   35 1
     6    3   36 1
     7    3   53 1
     8    4    5 ar
     9    4    9 ar
    10    5    6 ar
    11    5   37 1
    12    6    7 ar
    13    6   38 1
    14    7    8 ar
    15    7   39 1
    16    8    9 ar
    17    8   10 1
    18    9   40 1
    19   10   11 1
    20   10   31 2
    21   11   12 1
    22   11   33 2
    23   12   13 2
    24   12   14 1
    25   14   15 1
    26   14   41 1
    27   15   16 ar
    28   15   20 ar
    29   16   17 ar
    30   16   42 1
    31   17   18 ar
    32   17   43 1
    33   18   19 ar
    34   18   21 1
    35   19   20 ar
    36   19   44 1
    37   20   45 1
    38   21   22 ar
    39   21   26 ar
    40   22   23 ar
    41   22   46 1
    42   23   24 ar
    43   23   47 1
    44   24   25 ar
    45   24   48 1
    46   25   26 ar
    47   25   49 1
    48   26   27 1
    49   27   28 2
    50   27   29 2
    51   27   30 1
    52   30   50 1
    53   30   51 1
    54   30   54 1
    55   31   32 1
    56   32   33 1
    57   33   52 1
@<TRIPOS>SUBSTRUCTURE
     1 3YH         1 TEMP              0 ****  ****    0 ROOT
