@<TRIPOS>MOLECULE
molecule
   56    58     1     0     0
SMALL
bcc


@<TRIPOS>ATOM
      1 O4P          0.0000     0.0000     0.0000 o          1 3YN      -0.829000
      2 P2           1.6100     0.0000     0.0000 p5         1 3YN       1.428800
      3 O3P          2.1030     0.0000     1.3960 o          1 3YN      -0.829000
      4 O1           2.1470     1.3150    -0.7580 os         1 3YN      -0.577200
      5 C1           1.9290     2.6400    -0.2690 c3         1 3YN       0.431900
      6 C2           1.8520     3.6120    -1.4490 c3         1 3YN      -0.125400
      7 C3           1.5800     5.0240    -0.9170 c3         1 3YN       0.041100
      8 O3           0.2660     5.0870    -0.3590 oh         1 3YN      -0.582800
      9 C4           2.6070     5.3250     0.1570 c          1 3YN       0.549100
     10 O4           3.2250     6.3620     0.1560 o          1 3YN      -0.557100
     11 C5           2.8310     4.2810     1.2300 c3         1 3YN       0.075100
     12 O5           3.0050     3.0100     0.5930 os         1 3YN      -0.406600
     13 C6           1.6180     4.2320     2.1620 c3         1 3YN      -0.125100
     14 OPP          2.1470    -1.3140    -0.7580 os         1 3YN      -0.718800
     15 P            2.2380    -2.8730    -0.3670 p5         1 3YN       1.437800
     16 O1P          0.9620    -3.3010     0.2510 o          1 3YN      -0.835000
     17 O2P          3.4420    -3.0950     0.6780 o          1 3YN      -0.835000
     18 O5'          2.5110    -3.7450    -1.6930 os         1 3YN      -0.603200
     19 C5'          2.5390    -5.1730    -1.6930 c3         1 3YN       0.241400
     20 C4'          2.8230    -5.6780    -3.1100 c3         1 3YN       0.137100
     21 O4'          4.1570    -5.3120    -3.5220 os         1 3YN      -0.358600
     22 C3'          2.8470    -7.2270    -3.1420 c3         1 3YN       0.112100
     23 O3'          1.5310    -7.7540    -3.3250 oh         1 3YN      -0.598800
     24 C2'          3.7320    -7.5110    -4.3800 c3         1 3YN      -0.156400
     25 C1'          4.5300    -6.2090    -4.5810 c3         1 3YN       0.310500
     26 N11          5.9660    -6.4890    -4.5140 n          1 3YN      -0.357000
     27 C21          6.5070    -6.9240    -3.3620 c          1 3YN       0.804500
     28 O21          5.7960    -7.0800    -2.3870 o          1 3YN      -0.610500
     29 N31          7.8240    -7.1890    -3.2720 ns         1 3YN      -0.561500
     30 C41          8.6250    -7.0220    -4.3430 c          1 3YN       0.717700
     31 O41          9.8170    -7.2620    -4.2630 o          1 3YN      -0.654500
     32 C51          8.0690    -6.5640    -5.5620 cc         1 3YN      -0.309400
     33 C5A          8.9420    -6.3750    -6.7760 c3         1 3YN      -0.005900
     34 C61          6.7440    -6.3120    -5.6260 cd         1 3YN       0.055600
     35 H2           0.9980     2.6750     0.2850 h2         1 3YN       0.060700
     36 H3           1.0480     3.3140    -2.1110 hc         1 3YN       0.063700
     37 H4           2.7930     3.6030    -1.9860 hc         1 3YN       0.063700
     38 H5           1.6760     5.7420    -1.7230 h1         1 3YN       0.031700
     39 H6          -0.2580     5.6920    -0.8570 ho         1 3YN       0.391000
     40 H7           3.7210     4.5280     1.7960 h1         1 3YN       0.082700
     41 H8           1.2240     3.2230     2.1890 hc         1 3YN       0.055367
     42 H9           0.8550     4.9080     1.7970 hc         1 3YN       0.055367
     43 H10          1.9170     4.5300     3.1600 hc         1 3YN       0.055367
     44 H12          3.3170    -5.5190    -1.0240 h1         1 3YN       0.045200
     45 H13          1.5810    -5.5530    -1.3590 h1         1 3YN       0.045200
     46 H14          2.0910    -5.2950    -3.8110 h1         1 3YN       0.065700
     47 H15          3.3070    -7.6220    -2.2440 h1         1 3YN       0.076700
     48 H16          1.4570    -8.5780    -2.8720 ho         1 3YN       0.395000
     49 H17          3.1150    -7.7140    -5.2470 hc         1 3YN       0.053700
     50 H18          4.4030    -8.3390    -4.1820 hc         1 3YN       0.053700
     51 H19          4.2790    -5.7700    -5.5390 h2         1 3YN       0.060700
     52 H20          8.2090    -7.5120    -2.4060 hn         1 3YN       0.360500
     53 H21          9.7230    -5.6590    -6.5510 hc         1 3YN       0.038033
     54 H22          9.3890    -7.3230    -7.0500 hc         1 3YN       0.038033
     55 H23          8.3410    -6.0080    -7.5990 hc         1 3YN       0.038033
     56 H24          6.3010    -5.9610    -6.5500 h4         1 3YN       0.157000
@<TRIPOS>BOND
     1    12     5 1
     2    12    11 1
     3     6     5 1
     4     6     7 1
     5    13    11 1
     6    24    22 1
     7    24    25 1
     8    16    15 1
     9     5     4 1
    10     8     7 1
    11    10     9 2
    12    22    23 1
    13    22    20 1
    14     9    11 1
    15     9     7 1
    16    33    32 1
    17    32    34 2
    18    32    30 1
    19    34    26 1
    20    26    25 1
    21    26    27 1
    22    31    30 2
    23    30    29 1
    24    25    21 1
    25    14    15 1
    26    14     2 1
    27    15    18 1
    28    15    17 1
    29    29    27 1
    30    27    28 2
    31     4     2 1
    32    18    19 1
    33    20    19 1
    34    20    21 1
    35     3     2 1
    36     2     1 1
    37     5    35 1
    38     6    36 1
    39     6    37 1
    40     7    38 1
    41     8    39 1
    42    11    40 1
    43    13    41 1
    44    13    42 1
    45    13    43 1
    46    19    44 1
    47    19    45 1
    48    20    46 1
    49    22    47 1
    50    23    48 1
    51    24    49 1
    52    24    50 1
    53    25    51 1
    54    29    52 1
    55    33    53 1
    56    33    54 1
    57    33    55 1
    58    34    56 1
@<TRIPOS>SUBSTRUCTURE
     1 3YN         1 TEMP              0 ****  ****    0 ROOT
