@<TRIPOS>MOLECULE
molecule
   62    67     1     0     0
SMALL
bcc


@<TRIPOS>ATOM
      1 C1           0.0000     0.0000     0.0000 c3         1 3YO      -0.053800
      2 C2           1.5070     0.0000     0.0000 ca         1 3YO      -0.064300
      3 C3           2.2050     0.0000     1.2050 ca         1 3YO      -0.120900
      4 C4           3.5990    -0.0050     1.2000 ca         1 3YO      -0.084000
      5 C5           4.2850    -0.0100     0.0030 ca         1 3YO      -0.162000
      6 C6           3.5940    -0.0100    -1.1960 ca         1 3YO       0.153900
      7 C7           2.2020    -0.0050    -1.1990 ca         1 3YO       0.017600
      8 N8           1.5050    -0.0110    -2.4130 ns         1 3YO      -0.468100
      9 C9           2.0060     0.6390    -3.4820 c          1 3YO       0.693300
     10 O10          3.0350     1.2790    -3.3760 o          1 3YO      -0.563100
     11 C11          1.3100     0.5750    -4.7740 cc         1 3YO      -0.111600
     12 C12          1.7230     1.1820    -5.8910 cd         1 3YO      -0.045200
     13 C13          0.9100     0.9920    -7.0210 ca         1 3YO      -0.096800
     14 C14          1.0790     1.4990    -8.3320 ca         1 3YO      -0.076000
     15 C15          0.1780     1.2050    -9.3060 ca         1 3YO      -0.135000
     16 C16         -0.9240     0.4030    -9.0340 ca         1 3YO      -0.104000
     17 C17         -1.1160    -0.1030    -7.7710 ca         1 3YO      -0.103000
     18 C18         -0.2020     0.1850    -6.7530 ca         1 3YO       0.008900
     19 S19         -0.1740    -0.3150    -5.0650 ss         1 3YO      -0.111500
     20 F20          4.2710    -0.0140    -2.3650 f          1 3YO      -0.107900
     21 C21          1.4660     0.0070     2.4920 cd         1 3YO       0.440200
     22 C22          0.6840    -1.1090     2.8550 cd         1 3YO      -0.243600
     23 C23          0.0050    -1.1000     4.0390 cc         1 3YO       0.101800
     24 C24          0.1020     0.0350     4.8840 c          1 3YO       0.641700
     25 O25         -0.4970     0.0630     5.9470 o          1 3YO      -0.620500
     26 N26          0.8600     1.0830     4.5040 ns         1 3YO      -0.291900
     27 N28          1.5510     1.0500     3.2870 nc         1 3YO      -0.434300
     28 N29         -0.7740    -2.1940     4.4130 nu         1 3YO      -0.765700
     29 C30         -2.1430    -2.0280     4.6580 cd         1 3YO       0.607200
     30 C31         -2.8800    -0.8480     4.4540 cd         1 3YO      -0.353300
     31 C32         -4.1550    -1.0960     4.8040 cc         1 3YO      -0.049600
     32 N33         -4.2320    -2.3830     5.2180 na         1 3YO       0.075400
     33 N34         -2.9630    -2.9500     5.1120 nc         1 3YO      -0.560800
     34 C35         -5.4730    -3.0130     5.6840 c3         1 3YO       0.089300
     35 C36         -6.4830    -1.9040     6.0030 c3         1 3YO       0.139800
     36 N37         -6.5640    -0.9660     4.8760 n3         1 3YO      -0.731600
     37 C38         -5.3350    -0.1570     4.7720 c3         1 3YO       0.228100
     38 C39         -7.7510    -0.1080     4.9940 c3         1 3YO       0.152100
     39 H1          -0.3610    -1.0180    -0.0840 hc         1 3YO       0.051700
     40 H2          -0.3610     0.4360     0.9240 hc         1 3YO       0.051700
     41 H3          -0.3610     0.5820    -0.8390 hc         1 3YO       0.051700
     42 H4           4.1440    -0.0050     2.1360 ha         1 3YO       0.147000
     43 H5           5.3690    -0.0130     0.0020 ha         1 3YO       0.154000
     44 H6           0.6500    -0.5240    -2.4960 hn         1 3YO       0.330500
     45 H7           2.6260     1.7800    -5.9240 ha         1 3YO       0.173000
     46 H8           1.9320     2.1250    -8.5600 ha         1 3YO       0.138000
     47 H9           0.3200     1.6000   -10.3050 ha         1 3YO       0.136000
     48 H10         -1.6350     0.1770    -9.8200 ha         1 3YO       0.137000
     49 H11         -1.9770    -0.7280    -7.5650 ha         1 3YO       0.138000
     50 H12          0.6220    -1.9670     2.1980 ha         1 3YO       0.156000
     51 H27          0.9330     1.8860     5.0970 hn         1 3YO       0.372500
     52 H13         -0.3470    -3.0880     4.5520 hn         1 3YO       0.464800
     53 H14         -2.5100     0.0630     3.9980 ha         1 3YO       0.152000
     54 H15         -5.2740    -3.5930     6.5770 h1         1 3YO       0.066200
     55 H16         -5.8700    -3.6540     4.9060 h1         1 3YO       0.066200
     56 H17         -6.1620    -1.3720     6.8910 h1         1 3YO       0.049700
     57 H18         -7.4570    -2.3450     6.1740 h1         1 3YO       0.049700
     58 H20         -5.3390     0.3930     3.8380 h1         1 3YO       0.057700
     59 H21         -5.2790     0.5300     5.6080 h1         1 3YO       0.057700
     60 H22         -8.6440    -0.7190     4.9460 h1         1 3YO       0.036367
     61 H23         -7.7600     0.6090     4.1820 h1         1 3YO       0.036367
     62 H24         -7.7230     0.4180     5.9400 h1         1 3YO       0.036367
@<TRIPOS>BOND
     1    38    36 1
     2    36    37 1
     3    36    35 1
     4    37    31 1
     5    35    34 1
     6    31    32 1
     7    31    30 2
     8    34    32 1
     9    32    33 1
    10    30    29 1
    11    33    29 2
    12    29    28 1
    13    28    23 1
    14    23    22 2
    15    23    24 1
    16    22    21 1
    17    25    24 2
    18    24    26 1
    19     4     5 ar
    20     4     3 ar
    21     5     6 ar
    22    21     3 1
    23    21    27 2
    24    26    27 1
    25     3     2 ar
    26     6    20 1
    27     6     7 ar
    28     2     7 ar
    29     2     1 1
    30     7     8 1
    31     8     9 1
    32    10     9 2
    33     9    11 1
    34    11    12 2
    35    11    19 1
    36    12    13 1
    37    19    18 1
    38    13    18 ar
    39    13    14 ar
    40    18    17 ar
    41    14    15 ar
    42    17    16 ar
    43    15    16 ar
    44     1    39 1
    45     1    40 1
    46     1    41 1
    47     4    42 1
    48     5    43 1
    49     8    44 1
    50    12    45 1
    51    14    46 1
    52    15    47 1
    53    16    48 1
    54    17    49 1
    55    22    50 1
    56    26    51 1
    57    28    52 1
    58    30    53 1
    59    34    54 1
    60    34    55 1
    61    35    56 1
    62    35    57 1
    63    37    58 1
    64    37    59 1
    65    38    60 1
    66    38    61 1
    67    38    62 1
@<TRIPOS>SUBSTRUCTURE
     1 3YO         1 TEMP              0 ****  ****    0 ROOT
