@<TRIPOS>MOLECULE
molecule
   26    26     1     0     0
SMALL
bcc


@<TRIPOS>ATOM
      1 CAF          0.0000     0.0000     0.0000 c3         1 3YP      -0.080900
      2 CAC          1.5430     0.0000     0.0000 c3         1 3YP      -0.083400
      3 CAD          1.9230     0.0000     1.5020 c3         1 3YP      -0.083400
      4 CAG          0.8530     0.9300     2.1250 c3         1 3YP      -0.080900
      5 CAK         -0.4390     0.5920     1.3510 c3         1 3YP      -0.078700
      6 CAH         -1.2620     1.8610     1.1250 c3         1 3YP      -0.058400
      7 CAE         -1.7960     2.3680     2.4660 c3         1 3YP      -0.149400
      8 CAJ         -2.6080     3.6190     2.2420 c          1 3YP       0.667100
      9 OAA         -2.7440     4.0610     1.1210 o          1 3YP      -0.574100
     10 NAI         -3.1800     4.2460     3.2880 ns         1 3YP      -0.476400
     11 OAB         -3.9420     5.4200     3.0790 oh         1 3YP      -0.364100
     12 HAF1        -0.3700    -1.0140    -0.0970 hc         1 3YP       0.044700
     13 HAF2        -0.3700     0.6160    -0.8110 hc         1 3YP       0.044700
     14 HAC1         1.9210    -0.8920    -0.4850 hc         1 3YP       0.044450
     15 HAC2         1.9210     0.8920    -0.4850 hc         1 3YP       0.044450
     16 HAD1         1.8490    -0.9990     1.9150 hc         1 3YP       0.044450
     17 HAD2         2.9160     0.4100     1.6450 hc         1 3YP       0.044450
     18 HAG1         1.1210     1.9680     1.9750 hc         1 3YP       0.044700
     19 HAG2         0.7300     0.7110     3.1780 hc         1 3YP       0.044700
     20 HAK         -1.0180    -0.1390     1.9020 hc         1 3YP       0.047700
     21 HAH1        -0.6360     2.6220     0.6740 hc         1 3YP       0.062200
     22 HAH2        -2.0930     1.6400     0.4660 hc         1 3YP       0.062200
     23 HAE1        -2.4220     1.6070     2.9160 hc         1 3YP       0.059700
     24 HAE2        -0.9660     2.5900     3.1250 hc         1 3YP       0.059700
     25 HAI         -3.0580     3.8870     4.2150 hn         1 3YP       0.317500
     26 HAB         -4.2930     5.7180     3.9020 ho         1 3YP       0.397000
@<TRIPOS>BOND
     1     1     2 1
     2     1     5 1
     3     1    12 1
     4     1    13 1
     5     2     3 1
     6     2    14 1
     7     2    15 1
     8     3     4 1
     9     3    16 1
    10     3    17 1
    11     4     5 1
    12     4    18 1
    13     4    19 1
    14     5     6 1
    15     5    20 1
    16     6     7 1
    17     6    21 1
    18     6    22 1
    19     7     8 1
    20     7    23 1
    21     7    24 1
    22     8     9 2
    23     8    10 1
    24    10    11 1
    25    10    25 1
    26    11    26 1
@<TRIPOS>SUBSTRUCTURE
     1 3YP         1 TEMP              0 ****  ****    0 ROOT
