@<TRIPOS>MOLECULE
molecule
   25    25     1     0     0
SMALL
bcc


@<TRIPOS>ATOM
      1 O5           0.0000     0.0000     0.0000 o          1 3YQ      -0.924833
      2 P1           1.6100     0.0000     0.0000 p5         1 3YQ       1.076200
      3 O6           2.1470     0.0000     1.5180 o          1 3YQ      -0.924833
      4 O2           2.1030    -1.2070    -0.6990 o          1 3YQ      -0.924833
      5 C6           2.2170     1.4890    -0.8590 c3         1 3YQ      -0.078900
      6 P2           1.6100     2.9770     0.0010 p5         1 3YQ       1.076200
      7 O3           2.1020     4.1860    -0.6970 o          1 3YQ      -0.924833
      8 O1          -0.0010     2.9780     0.0010 o          1 3YQ      -0.924833
      9 O4           2.1470     2.9770     1.5180 o          1 3YQ      -0.924833
     10 N1           3.6820     1.4900    -0.8590 nu         1 3YQ      -0.657900
     11 C1           4.3770     0.6390    -1.7110 ca         1 3YQ       0.661200
     12 N2           3.7090    -0.1660    -2.5230 nb         1 3YQ      -0.619000
     13 C5           4.3300    -0.9880    -3.3470 ca         1 3YQ       0.449200
     14 C4           5.7090    -1.0400    -3.3910 ca         1 3YQ      -0.489300
     15 C3           6.4470    -0.2120    -2.5550 ca         1 3YQ      -0.070000
     16 C2           5.7680     0.6440    -1.7070 ca         1 3YQ      -0.359600
     17 C7           6.5250     1.5640    -0.7850 c3         1 3YQ      -0.015800
     18 H3           1.8560     1.4890    -1.8800 h1         1 3YQ       0.051700
     19 H6           4.1820     2.1280    -0.2720 hn         1 3YQ       0.441800
     20 H7           3.7500    -1.6320    -3.9980 h4         1 3YQ      -0.038900
     21 H8           6.2100    -1.7200    -4.0690 ha         1 3YQ       0.044000
     22 H9           7.5300    -0.2320    -2.5710 ha         1 3YQ       0.046000
     23 H10          7.5890     1.4500    -0.9540 hc         1 3YQ       0.010700
     24 H11          6.2370     2.5900    -0.9810 hc         1 3YQ       0.010700
     25 H12          6.2940     1.3150     0.2440 hc         1 3YQ       0.010700
@<TRIPOS>BOND
     1     4     2 1
     2     3     2 1
     3     2     1 1
     4     2     5 1
     5     5    10 1
     6     5     6 1
     7    10    11 1
     8    17    16 1
     9     7     6 1
    10     9     6 1
    11     6     8 1
    12    11    16 ar
    13    11    12 ar
    14    16    15 ar
    15    12    13 ar
    16    15    14 ar
    17    13    14 ar
    18     5    18 1
    19    10    19 1
    20    13    20 1
    21    14    21 1
    22    15    22 1
    23    17    23 1
    24    17    24 1
    25    17    25 1
@<TRIPOS>SUBSTRUCTURE
     1 3YQ         1 TEMP              0 ****  ****    0 ROOT
