@<TRIPOS>MOLECULE
3YR
   44    45     1     0     0
SMALL
bcc


@<TRIPOS>ATOM
      1 O2          0.0070   -1.0420   -0.4700 o         1 3YR     -0.347000
      2 C9          2.1350   -0.7860   -1.4810 c2        1 3YR     -0.148000
      3 C8          1.7410   -1.3690   -2.6890 c2        1 3YR     -0.404000
      4 C10         1.1760   -0.6290   -0.3510 c2        1 3YR      0.386000
      5 C11         0.9090    0.1980    1.9680 c2        1 3YR     -0.036000
      6 C12        -0.3480   -0.3320    2.2110 c2        1 3YR     -0.146000
      7 C7          4.0510   -0.6700   -2.6030 c2        1 3YR     -0.251000
      8 C3          7.9930    2.3530   -2.9300 c1        1 3YR      0.291000
      9 C2          6.4510   -2.5900   -2.5130 c2        1 3YR     -0.225000
     10 C4          7.3210    1.2330   -3.1200 c2        1 3YR     -0.506000
     11 C5          5.9390    0.8960   -2.8190 c2        1 3YR      0.236000
     12 C6          5.4390   -0.3720   -2.9230 c2        1 3YR     -0.127000
     13 O1          2.8840    0.4500    3.4250 os        1 3YR     -0.223000
     14 C1          6.2740   -1.5220   -3.3130 c2        1 3YR      0.070000
     15 S           3.0030   -1.4170   -3.7560 ss        1 3YR      0.590000
     16 N4          3.4630   -0.3850   -1.4350 n2        1 3YR     -0.079000
     17 F1          6.8640   -1.4520   -4.5380 f         1 3YR     -0.115000
     18 N1          1.6380   -0.0010    0.7980 n         1 3YR     -0.288000
     19 C15         1.6570    1.0470    3.0330 c3        1 3YR      0.093000
     20 C14         0.7000    1.4880    4.1230 c2        1 3YR     -0.214000
     21 C13        -0.3280    0.6470    4.1760 c1        1 3YR     -0.041000
     22 N2         -0.8120   -0.3580    3.5520 n2        1 3YR     -0.056000
     23 C16         2.7810   -0.7650    4.0930 c2        1 3YR     -0.056000
     24 C19         5.5950   -0.5910    7.0850 c3        1 3YR     -0.127000
     25 N3          6.0660   -0.9810    5.7840 n3        1 3YR     -0.304000
     26 C18         5.1990   -0.5900    4.6870 c3        1 3YR     -0.037000
     27 C17         3.8680   -1.2660    4.6970 c2        1 3YR     -0.198000
     28 H1          0.7290   -1.7380   -2.8750 h4        1 3YR      0.210000
     29 H2         -0.9620   -0.8710    1.4720 h4        1 3YR      0.209000
     30 H3          5.9800   -2.6420   -1.5240 ha        1 3YR      0.144000
     31 H4          7.0700   -3.4450   -2.8110 ha        1 3YR      0.144000
     32 H5          7.9110    0.4050   -3.5870 ha        1 3YR      0.226000
     33 H6          2.6000    0.2690    0.8420 hn        1 3YR      0.264000
     34 H7          2.0010    2.0140    2.5470 h1        1 3YR      0.152000
     35 H8          0.8510    2.4290    4.6490 ha        1 3YR      0.177000
     36 H9          1.7980   -1.2570    4.0690 h4        1 3YR      0.151000
     37 H10         4.5890   -1.0550    7.2650 h1        1 3YR      0.068667
     38 H11         5.4930    0.5220    7.2160 h1        1 3YR      0.068667
     39 H12         6.3140   -0.9750    7.8560 h1        1 3YR      0.068667
     40 H14         6.9870   -0.6180    5.6210 hn        1 3YR      0.154000
     41 H15         5.0330    0.5300    4.6550 h1        1 3YR      0.078500
     42 H16         5.7250   -0.8760    3.7290 h1        1 3YR      0.078500
     43 H17         3.7990   -2.2430    5.2010 ha        1 3YR      0.150000
     44 F2          5.1520    1.9260   -2.4290 f         1 3YR     -0.084000
@<TRIPOS>BOND
     1    1    4 1
     2    2    3 1
     3    2    4 1
     4    2   16 1
     5    3   15 1
     6    3   28 1
     7    4   18 1
     8    5    6 1
     9    5   18 1
    10    5   19 1
    11    6   22 1
    12    6   29 1
    13    7   12 1
    14    7   15 1
    15    7   16 1
    16    8   10 1
    17    9   14 1
    18    9   30 1
    19    9   31 1
    20   10   11 1
    21   10   32 1
    22   11   12 1
    23   11   44 1
    24   12   14 1
    25   13   19 1
    26   13   23 1
    27   14   17 1
    28   18   33 1
    29   19   20 1
    30   19   34 1
    31   20   21 1
    32   20   35 1
    33   21   22 1
    34   23   27 1
    35   23   36 1
    36   24   25 1
    37   24   37 1
    38   24   38 1
    39   24   39 1
    40   25   26 1
    41   25   40 1
    42   26   27 1
    43   26   41 1
    44   26   42 1
    45   27   43 1
@<TRIPOS>SUBSTRUCTURE
     1 3YR         1 TEMP              0 ****  ****    0 ROOT
