@<TRIPOS>MOLECULE
molecule
   44    47     1     0     0
SMALL
bcc


@<TRIPOS>ATOM
      1 O1           0.0000     0.0000     0.0000 o          1 3YS      -0.584100
      2 C7           1.7440     0.7970     3.4430 ca         1 3YS      -0.133000
      3 C6           1.0510     0.8970     4.6350 ca         1 3YS      -0.122300
      4 C1           1.0210     4.0930     5.4150 c3         1 3YS       0.024700
      5 C5           1.6470     1.6590     5.7890 c3         1 3YS       0.191500
      6 C4           1.6270     0.8090     7.0930 c3         1 3YS       0.146400
      7 C3           1.0530     3.0070     7.6970 c3         1 3YS       0.113400
      8 C2           0.7400     2.8270     6.2030 c3         1 3YS      -0.155700
      9 C15          3.3470     0.0100    -3.6240 ca         1 3YS       0.048600
     10 C14          3.9800     0.0210    -2.3880 ca         1 3YS       0.379200
     11 N3           3.2840     0.0150    -1.2730 nb         1 3YS      -0.672000
     12 C16          1.9600    -0.0010    -3.6760 ca         1 3YS      -0.139000
     13 C17          1.2540    -0.0000    -2.4840 ca         1 3YS      -0.150300
     14 C13          1.9570    -0.0000    -1.2810 ca         1 3YS       0.337800
     15 C12          1.2160     0.0000     0.0000 c          1 3YS       0.587600
     16 N2           1.8880     0.0000     1.1690 ns         1 3YS      -0.469100
     17 C8           1.1910     0.0990     2.3770 ca         1 3YS       0.060600
     18 C9          -0.0530    -0.5020     2.5140 ca         1 3YS      -0.084000
     19 C10         -0.7390    -0.4050     3.7080 ca         1 3YS      -0.128000
     20 C11         -0.1890     0.2970     4.7670 ca         1 3YS       0.126900
     21 F           -0.8620     0.3900     5.9360 f          1 3YS      -0.134900
     22 N            3.0160     2.0310     5.5250 n2         1 3YS      -0.577900
     23 O            1.6090     1.7680     8.1630 os         1 3YS      -0.401600
     24 S            2.6960     4.6750     5.7870 ss         1 3YS      -0.194300
     25 C            3.5760     3.1780     5.4970 c2         1 3YS       0.478100
     26 H1           2.7300     1.2360     3.3580 ha         1 3YS       0.124000
     27 H2           1.1050     3.7060     4.4070 h1         1 3YS       0.109200
     28 H3           0.2310     4.8310     5.4970 h1         1 3YS       0.109200
     29 H6           0.8290     0.0780     7.1440 h1         1 3YS       0.089200
     30 H7           2.5950     0.3230     7.1170 h1         1 3YS       0.089200
     31 H8           1.8170     3.7530     7.8760 h1         1 3YS       0.071700
     32 H9           0.1300     3.2420     8.2150 h1         1 3YS       0.071700
     33 H10         -0.3080     2.5510     6.2030 hc         1 3YS       0.129700
     34 H11          5.0620     0.0570    -2.3490 h4         1 3YS       0.043100
     35 H12          1.4410    -0.0000    -4.6270 ha         1 3YS       0.171000
     36 H13          0.1710    -0.0180    -2.4940 ha         1 3YS       0.176000
     37 H14          2.8780    -0.1510     1.1880 hn         1 3YS       0.346500
     38 H15         -0.4700    -1.0780     1.6960 ha         1 3YS       0.188000
     39 H16         -1.7080    -0.8820     3.7970 ha         1 3YS       0.171000
     40 N1           4.9230     3.2470     5.2290 nz         1 3YS      -0.736600
     41 H4           5.1240     3.9850     4.5830 hn         1 3YS       0.471133
     42 H5           5.1710     2.3730     4.8100 hn         1 3YS       0.471133
     43 H131         5.4620     3.3570     6.0650 hn         1 3YS       0.471133
     44 F1           4.0740     0.0140    -4.7630 f          1 3YS      -0.115900
@<TRIPOS>BOND
     1    19    18 ar
     2    19    20 ar
     3    21    20 1
     4    18    17 ar
     5    20     3 ar
     6     1    15 2
     7    17    16 1
     8    17     2 ar
     9    15    16 1
    10    15    14 1
    11     3     2 ar
    12     3     5 1
    13     6     5 1
    14     6    23 1
    15    13    14 ar
    16    13    12 ar
    17    14    11 ar
    18     5     8 1
    19     5    22 1
    20    23     7 1
    21    12     9 ar
    22     8     7 1
    23     8     4 1
    24    11    10 ar
    25    22    25 2
    26     9    10 ar
    27     9    44 1
    28     4    24 1
    29    25    24 1
    30    25    40 1
    31     2    26 1
    32     4    27 1
    33     4    28 1
    34    40    41 1
    35    40    42 1
    36     6    29 1
    37     6    30 1
    38     7    31 1
    39     7    32 1
    40     8    33 1
    41    10    34 1
    42    12    35 1
    43    13    36 1
    44    16    37 1
    45    18    38 1
    46    19    39 1
    47    43    40 1
@<TRIPOS>SUBSTRUCTURE
     1 3YS         1 TEMP              0 ****  ****    0 ROOT
