@<TRIPOS>MOLECULE
3YS
   44    47     1     0     0
SMALL
bcc


@<TRIPOS>ATOM
      1 O1           0.0000     0.0000     0.0000 o          1 3YS      -0.625100
      2 C7           1.7440     0.7970     3.4430 ca         1 3YS      -0.116000
      3 C6           1.0510     0.8970     4.6350 ca         1 3YS      -0.129300
      4 C1           1.0210     4.0930     5.4150 c3         1 3YS       0.128700
      5 C5           1.6470     1.6590     5.7890 c3         1 3YS       0.136500
      6 C4           1.6270     0.8090     7.0930 c3         1 3YS       0.216400
      7 C3           1.0530     3.0070     7.6970 c3         1 3YS       0.179400
      8 C2           0.7400     2.8270     6.2030 c3         1 3YS      -0.142700
      9 C15          3.3470     0.0100    -3.6240 ca         1 3YS       0.030600
     10 C14          3.9800     0.0210    -2.3880 ca         1 3YS       0.367200
     11 N3           3.2840     0.0150    -1.2730 nb         1 3YS      -0.559000
     12 C16          1.9600    -0.0010    -3.6760 ca         1 3YS      -0.106000
     13 C17          1.2540    -0.0000    -2.4840 ca         1 3YS      -0.109300
     14 C13          1.9570    -0.0000    -1.2810 ca         1 3YS       0.279800
     15 C12          1.2160     0.0000     0.0000 c          1 3YS       0.489600
     16 N2           1.8880     0.0000     1.1690 ns         1 3YS      -0.029100
     17 C8           1.1910     0.0990     2.3770 ca         1 3YS      -0.076400
     18 C9          -0.0530    -0.5020     2.5140 ca         1 3YS      -0.056000
     19 C10         -0.7390    -0.4050     3.7080 ca         1 3YS      -0.086000
     20 C11         -0.1890     0.2970     4.7670 ca         1 3YS       0.106900
     21 F           -0.8620     0.3900     5.9360 f          1 3YS      -0.119900
     22 N            3.0160     2.0310     5.5250 n2         1 3YS      -0.348900
     23 O            1.6090     1.7680     8.1630 os         1 3YS      -0.391600
     24 S            2.6960     4.6750     5.7870 ss         1 3YS      -0.240300
     25 C            3.5760     3.1780     5.4970 c2         1 3YS       0.162100
     26 H1           2.7300     1.2360     3.3580 ha         1 3YS       0.097000
     27 H2           1.1050     3.7060     4.4070 h1         1 3YS       0.076700
     28 H3           0.2310     4.8310     5.4970 h1         1 3YS       0.076700
     29 H6           0.8290     0.0780     7.1440 h1         1 3YS       0.044200
     30 H7           2.5950     0.3230     7.1170 h1         1 3YS       0.044200
     31 H8           1.8170     3.7530     7.8760 h1         1 3YS       0.037700
     32 H9           0.1300     3.2420     8.2150 h1         1 3YS       0.037700
     33 H10         -0.3080     2.5510     6.2030 hc         1 3YS       0.103700
     34 H11          5.0620     0.0570    -2.3490 h4         1 3YS      -0.000900
     35 H12          1.4410    -0.0000    -4.6270 ha         1 3YS       0.138000
     36 H13          0.1710    -0.0180    -2.4940 ha         1 3YS       0.144000
     37 H14          2.8780    -0.1510     1.1880 hn         1 3YS       0.188500
     38 H15         -0.4700    -1.0780     1.6960 ha         1 3YS       0.161000
     39 H16         -1.7080    -0.8820     3.7970 ha         1 3YS       0.138000
     40 N1           4.9230     3.2470     5.2290 nz         1 3YS       0.196400
     41 H4           5.1240     3.9850     4.5830 hn         1 3YS       0.221467
     42 H5           5.1710     2.3730     4.8100 hn         1 3YS       0.221467
     43 H131         5.4620     3.3570     6.0650 hn         1 3YS       0.221467
     44 F1           4.0740     0.0140    -4.7630 f          1 3YS      -0.107900
@<TRIPOS>BOND
     1     1    15 2   
     2     2     3 ar  
     3     2    17 ar  
     4     2    26 1   
     5     3     5 1   
     6     3    20 ar  
     7     4     8 1   
     8     4    24 1   
     9     4    27 1   
    10     4    28 1   
    11     5     6 1   
    12     5     8 1   
    13     5    22 1   
    14     6    23 1   
    15     6    29 1   
    16     6    30 1   
    17     7     8 1   
    18     7    23 1   
    19     7    31 1   
    20     7    32 1   
    21     8    33 1   
    22     9    10 ar  
    23     9    12 ar  
    24     9    44 1   
    25    10    11 ar  
    26    10    34 1   
    27    11    14 ar  
    28    12    13 ar  
    29    12    35 1   
    30    13    14 ar  
    31    13    36 1   
    32    14    15 1   
    33    15    16 1   
    34    16    17 1   
    35    16    37 1   
    36    17    18 ar  
    37    18    19 ar  
    38    18    38 1   
    39    19    20 ar  
    40    19    39 1   
    41    20    21 1   
    42    22    25 2   
    43    24    25 1   
    44    25    40 1   
    45    40    41 1   
    46    40    42 1   
    47    40    43 1   
@<TRIPOS>SUBSTRUCTURE
     1 3YS         1 TEMP              0 ****  ****    0 ROOT
