@<TRIPOS>MOLECULE
3YT
   54    57     1     0     0
SMALL
bcc


@<TRIPOS>ATOM
      1 C2           0.0000     0.0000     0.0000 c3         1 3YT       0.008500
      2 C3           1.5300     0.0000     0.0000 c3         1 3YT      -0.187400
      3 C11         -2.5320     4.7780     0.9770 ca         1 3YT       0.567200
      4 C12         -2.0820     5.9390     0.3380 ca         1 3YT      -0.602200
      5 C13         -2.8280     7.2030     0.4550 c          1 3YT       0.385700
      6 C16         -0.8950     5.8640    -0.4220 ca         1 3YT       0.606200
      7 C18          0.6850     6.8600    -1.9390 ca         1 3YT      -0.078400
      8 C19          0.8160     5.7330    -2.7420 ca         1 3YT      -0.085000
      9 C20          1.8940     5.6160    -3.5980 ca         1 3YT      -0.076000
     10 C21          2.8450     6.6170    -3.6580 ca         1 3YT      -0.051000
     11 C22          2.7200     7.7440    -2.8560 ca         1 3YT      -0.116200
     12 C23          1.6360     7.8690    -2.0010 ca         1 3YT      -0.078000
     13 C26          5.4050     9.8430    -3.4940 cc         1 3YT       0.262400
     14 C27          4.6950    10.5770    -2.5400 cc         1 3YT       0.262400
     15 N1          -0.4890    -0.0010    -1.3860 nz         1 3YT       0.061400
     16 C4           2.0400     0.0000     1.4430 c3         1 3YT       0.034600
     17 C5           1.5290     1.2490     2.1640 c3         1 3YT      -0.040400
     18 C6          -0.0010     1.2490     2.1630 c3         1 3YT      -0.041400
     19 C7          -0.5110     1.2490     0.7200 c3         1 3YT       0.076500
     20 N8          -0.0230     2.4450     0.0300 nu         1 3YT      -0.533900
     21 C9          -0.7160     3.6330     0.1340 ca         1 3YT       0.796900
     22 N10         -1.8320     3.6650     0.8540 nb         1 3YT      -0.713000
     23 N14         -3.8930     7.2830     1.2760 nz         1 3YT       0.211600
     24 O15         -2.4820     8.1740    -0.1900 o          1 3YT      -0.487100
     25 N24          3.6820     8.7620    -2.9220 na         1 3YT       0.828800
     26 N25          4.7200     8.7380    -3.6810 nd         1 3YT      -0.671300
     27 N28          3.6440     9.8490    -2.2370 nd         1 3YT      -0.671300
     28 N29         -0.2560     4.7020    -0.4980 nb         1 3YT      -0.698000
     29 H1          -0.3590    -0.8830     0.5150 hx         1 3YT       0.085700
     30 H2           1.0060    -0.8870     0.3360 hc         1 3YT       0.071700
     31 H3           2.1290    -0.3720    -0.8220 hc         1 3YT       0.071700
     32 H4          -3.3350     4.8350     1.7030 h4         1 3YT      -0.034900
     33 H5           0.0730     4.9460    -2.6960 ha         1 3YT       0.110000
     34 H6           1.9940     4.7370    -4.2240 ha         1 3YT       0.115000
     35 H7           3.6910     6.5210    -4.3280 ha         1 3YT       0.150000
     36 H8           1.5360     8.7470    -1.3750 ha         1 3YT       0.143000
     37 H11         -1.4770     0.1600    -1.3910 hn         1 3YT       0.231800
     38 H12         -0.2920    -0.8860    -1.8080 hn         1 3YT       0.231800
     39 H14          3.1230     0.0030     1.4420 hc         1 3YT       0.040700
     40 H15          1.6760    -0.8840     1.9530 hc         1 3YT       0.040700
     41 H16          1.8890     2.1330     1.6520 hc         1 3YT       0.041200
     42 H17          1.8880     1.2460     3.1860 hc         1 3YT       0.041200
     43 H18         -0.3610     0.3630     2.6720 hc         1 3YT       0.046700
     44 H19         -0.3610     2.1350     2.6720 hc         1 3YT       0.046700
     45 H20         -1.5940     1.2440     0.7220 h1         1 3YT       0.066700
     46 H21          0.9620     2.3560     0.1890 hn         1 3YT       0.338800
     47 H22         -4.5970     6.6390     0.9720 hn         1 3YT       0.248133
     48 H23         -4.2610     8.2130     1.2550 hn         1 3YT       0.248133
     49 H9           6.3300    10.1280    -3.9800 h4         1 3YT       0.028600
     50 H13         -0.0250     0.7200    -1.9030 hn         1 3YT       0.231800
     51 H143        -3.6140     7.0530     2.2090 hn         1 3YT       0.248133
     52 N17         -0.4060     6.9780    -1.0730 nu         1 3YT      -0.174300
     53 H10          5.0750    11.4160    -1.9700 h4         1 3YT       0.028600
     54 H24         -0.8230     7.8740    -0.9120 hn         1 3YT       0.331800
@<TRIPOS>BOND
     1     1     2 1   
     2     1    15 1   
     3     1    19 1   
     4     1    29 1   
     5     2    16 1   
     6     2    30 1   
     7     2    31 1   
     8     3     4 ar  
     9     3    22 ar  
    10     3    32 1   
    11     4     5 1   
    12     4     6 ar  
    13     5    23 1   
    14     5    24 2   
    15     6    28 ar  
    16     6    52 1   
    17     7     8 ar  
    18     7    12 ar  
    19     7    52 1   
    20     8     9 ar  
    21     8    33 1   
    22     9    10 ar  
    23     9    34 1   
    24    10    11 ar  
    25    10    35 1   
    26    11    12 ar  
    27    11    25 1   
    28    12    36 1   
    29    13    14 1   
    30    13    26 2   
    31    13    49 1   
    32    14    27 2   
    33    14    53 1   
    34    15    37 1   
    35    15    38 1   
    36    15    50 1   
    37    16    17 1   
    38    16    39 1   
    39    16    40 1   
    40    17    18 1   
    41    17    41 1   
    42    17    42 1   
    43    18    19 1   
    44    18    43 1   
    45    18    44 1   
    46    19    20 1   
    47    19    45 1   
    48    20    21 1   
    49    20    46 1   
    50    21    22 ar  
    51    21    28 ar  
    52    23    47 1   
    53    23    48 1   
    54    23    51 1   
    55    25    26 1   
    56    25    27 1   
    57    52    54 1   
@<TRIPOS>SUBSTRUCTURE
     1 3YT         1 TEMP              0 ****  ****    0 ROOT
