@<TRIPOS>MOLECULE
molecule
   54    57     1     0     0
SMALL
bcc


@<TRIPOS>ATOM
      1 C2           0.0000     0.0000     0.0000 c3         1 3YT       0.165500
      2 C3           1.5300     0.0000     0.0000 c3         1 3YT      -0.231400
      3 C11         -2.5320     4.7780     0.9770 ca         1 3YT       0.563200
      4 C12         -2.0820     5.9390     0.3380 ca         1 3YT      -0.574200
      5 C13         -2.8280     7.2030     0.4550 c          1 3YT       0.532700
      6 C16         -0.8950     5.8640    -0.4220 ca         1 3YT       0.822200
      7 C18          0.6850     6.8600    -1.9390 ca         1 3YT       0.104600
      8 C19          0.8160     5.7330    -2.7420 ca         1 3YT      -0.127000
      9 C20          1.8940     5.6160    -3.5980 ca         1 3YT      -0.103000
     10 C21          2.8450     6.6170    -3.6580 ca         1 3YT      -0.104000
     11 C22          2.7200     7.7440    -2.8560 ca         1 3YT       0.077800
     12 C23          1.6360     7.8690    -2.0010 ca         1 3YT      -0.132000
     13 C26          5.4050     9.8430    -3.4940 cc         1 3YT       0.229400
     14 C27          4.6950    10.5770    -2.5400 cc         1 3YT       0.229400
     15 N1          -0.4890    -0.0010    -1.3860 nz         1 3YT      -0.811600
     16 C4           2.0400     0.0000     1.4430 c3         1 3YT      -0.046400
     17 C5           1.5290     1.2490     2.1640 c3         1 3YT      -0.096400
     18 C6          -0.0010     1.2490     2.1630 c3         1 3YT      -0.105400
     19 C7          -0.5110     1.2490     0.7200 c3         1 3YT       0.156500
     20 N8          -0.0230     2.4450     0.0300 nu         1 3YT      -0.850900
     21 C9          -0.7160     3.6330     0.1340 ca         1 3YT       0.994900
     22 N10         -1.8320     3.6650     0.8540 nb         1 3YT      -0.816000
     23 N14         -3.8930     7.2830     1.2760 nz         1 3YT      -0.675400
     24 O15         -2.4820     8.1740    -0.1900 o          1 3YT      -0.456100
     25 N24          3.6820     8.7620    -2.9220 na         1 3YT       0.371800
     26 N25          4.7200     8.7380    -3.6810 nd         1 3YT      -0.541800
     27 N28          3.6440     9.8490    -2.2370 nd         1 3YT      -0.541800
     28 N29         -0.2560     4.7020    -0.4980 nb         1 3YT      -0.802000
     29 H1          -0.3590    -0.8830     0.5150 hx         1 3YT       0.104700
     30 H2           1.0060    -0.8870     0.3360 hc         1 3YT       0.099200
     31 H3           2.1290    -0.3720    -0.8220 hc         1 3YT       0.099200
     32 H4          -3.3350     4.8350     1.7030 h4         1 3YT       0.018100
     33 H5           0.0730     4.9460    -2.6960 ha         1 3YT       0.135000
     34 H6           1.9940     4.7370    -4.2240 ha         1 3YT       0.148000
     35 H7           3.6910     6.5210    -4.3280 ha         1 3YT       0.181000
     36 H8           1.5360     8.7470    -1.3750 ha         1 3YT       0.171000
     37 H11         -1.4770     0.1600    -1.3910 hn         1 3YT       0.461467
     38 H12         -0.2920    -0.8860    -1.8080 hn         1 3YT       0.461467
     39 H14          3.1230     0.0030     1.4420 hc         1 3YT       0.077700
     40 H15          1.6760    -0.8840     1.9530 hc         1 3YT       0.077700
     41 H16          1.8890     2.1330     1.6520 hc         1 3YT       0.072200
     42 H17          1.8880     1.2460     3.1860 hc         1 3YT       0.072200
     43 H18         -0.3610     0.3630     2.6720 hc         1 3YT       0.081200
     44 H19         -0.3610     2.1350     2.6720 hc         1 3YT       0.081200
     45 H20         -1.5940     1.2440     0.7220 h1         1 3YT       0.094700
     46 H21          0.9620     2.3560     0.1890 hn         1 3YT       0.466800
     47 H22         -4.5970     6.6390     0.9720 hn         1 3YT       0.482133
     48 H23         -4.2610     8.2130     1.2550 hn         1 3YT       0.482133
     49 H9           6.3300    10.1280    -3.9800 h4         1 3YT       0.074600
     50 H13         -0.0250     0.7200    -1.9030 hn         1 3YT       0.461467
     51 H143        -3.6140     7.0530     2.2090 hn         1 3YT       0.482133
     52 N17         -0.4060     6.9780    -1.0730 nu         1 3YT      -0.689300
     53 H10          5.0750    11.4160    -1.9700 h4         1 3YT       0.074600
     54 H24         -0.8230     7.8740    -0.9120 hn         1 3YT       0.497800
@<TRIPOS>BOND
     1    17    18 1   
     2    17    16 1   
     3    18    19 1   
     4    14    27 2   
     5    14    13 1   
     6    16     2 1   
     7    27    25 1   
     8    13    26 2   
     9    19    20 1   
    10    19     1 1   
    11    25    26 1   
    12    25    11 1   
    13    20    21 1   
    14     2     1 1   
    15     1    15 1   
    16    21    28 ar  
    17    21    22 ar  
    18    11    12 ar  
    19    11    10 ar  
    20    12     7 ar  
    21    28     6 ar  
    22    22     3 ar  
    23    10     9 ar  
    24     6    52 1   
    25     6     4 ar  
    26     7    52 1   
    27     7     8 ar  
    28     3     4 ar  
    29     4     5 1   
    30     9     8 ar  
    31     5    23 1   
    32     5    24 2   
    33     1    29 1   
    34     2    30 1   
    35     2    31 1   
    36     3    32 1   
    37     8    33 1   
    38     9    34 1   
    39    10    35 1   
    40    12    36 1   
    41    13    49 1   
    42    14    53 1   
    43    15    37 1   
    44    15    38 1   
    45    16    39 1   
    46    16    40 1   
    47    17    41 1   
    48    17    42 1   
    49    18    43 1   
    50    18    44 1   
    51    19    45 1   
    52    20    46 1   
    53    23    47 1   
    54    23    48 1   
    55    52    54 1   
    56    50    15 1   
    57    51    23 1   
@<TRIPOS>SUBSTRUCTURE
     1 3YT         1 TEMP              0 ****  ****    0 ROOT
