@<TRIPOS>MOLECULE
molecule
   63    68     1     0     0
SMALL
bcc


@<TRIPOS>ATOM
      1 N14          0.0000     0.0000     0.0000 nc         1 3YU      -0.681000
      2 C13          1.3480     0.0000     0.0000 cc         1 3YU       0.376800
      3 C18          3.8800     0.0020    -3.4200 ca         1 3YU      -0.265900
      4 C17          2.4810     0.0020    -3.5850 ca         1 3YU      -0.014200
      5 C16          1.6570     0.0000    -2.4650 ca         1 3YU      -0.135000
      6 C15          2.2230     0.0000    -1.1980 ca         1 3YU      -0.060500
      7 C19          4.4320    -0.0030    -2.1340 ca         1 3YU      -0.050000
      8 C20          3.6160     0.0010    -1.0440 ca         1 3YU      -0.171000
      9 C21         -5.5790    -0.6390     9.3780 ca         1 3YU      -0.119000
     10 C22         -4.4400    -0.3470    10.1040 ca         1 3YU      -0.104000
     11 C23         -3.2250    -0.1680     9.4620 ca         1 3YU       0.034400
     12 C24         -3.1410    -0.2790     8.0890 ca         1 3YU      -0.104000
     13 C12          1.7610     0.0000     1.2950 cd         1 3YU      -0.254600
     14 C33         -7.8760    -0.4670     7.3650 cd         1 3YU       0.414400
     15 N1          -1.9560     0.1200     3.1130 ns         1 3YU      -0.593900
     16 C2          -1.8750     0.0010     1.6550 c3         1 3YU       0.112400
     17 C3          -0.4280    -0.0000     1.2320 cd         1 3YU       0.389800
     18 C4          -2.5960     1.1820     1.0050 c3         1 3YU      -0.043100
     19 C5          -4.0660     1.1140     1.3290 ca         1 3YU      -0.076300
     20 C6          -4.9260     0.4230     0.4950 ca         1 3YU      -0.116500
     21 C7          -6.2750     0.3600     0.7930 ca         1 3YU      -0.121500
     22 C8          -6.7640     0.9870     1.9230 ca         1 3YU      -0.120000
     23 C9          -5.9040     1.6780     2.7570 ca         1 3YU      -0.121500
     24 C10         -4.5540     1.7380     2.4620 ca         1 3YU      -0.116500
     25 N11          0.6340    -0.0000     2.0670 na         1 3YU      -0.291900
     26 C25         -4.2840    -0.5740     7.3420 ca         1 3YU      -0.040800
     27 C26         -5.5120    -0.7600     7.9990 ca         1 3YU       0.019800
     28 N27         -6.6650    -1.0560     7.2630 na         1 3YU      -0.011500
     29 C29         -4.2020    -0.6950     5.8790 ce         1 3YU      -0.036200
     30 C30         -3.1200    -0.2270     5.2230 cf         1 3YU      -0.235200
     31 O32         -3.9470    -0.8670     3.1480 o          1 3YU      -0.576100
     32 N34         -8.6650    -1.0500     6.5010 nc         1 3YU      -0.408000
     33 N35         -8.0350    -1.9670     5.8590 nc         1 3YU       0.006000
     34 N36         -6.8110    -2.0300     6.2590 nd         1 3YU      -0.201800
     35 N37          2.2420     0.0020    -4.9360 na         1 3YU      -0.050100
     36 N38          3.4610     0.0030    -5.6190 nc         1 3YU      -0.532100
     37 C39          4.4520     0.0020    -4.7670 cd         1 3YU       0.604800
     38 N40          5.8130    -0.0010    -5.0850 nv         1 3YU      -1.006800
     39 H52          0.5860     0.1130    -2.5800 ha         1 3YU       0.153000
     40 H53          5.5070    -0.0020    -2.0050 ha         1 3YU       0.131000
     41 H54          4.0460     0.0060    -0.0500 ha         1 3YU       0.125000
     42 H55         -6.5240    -0.7800     9.8890 ha         1 3YU       0.152000
     43 H56         -4.4970    -0.2560    11.1820 ha         1 3YU       0.157000
     44 H57         -2.1890    -0.1360     7.5910 ha         1 3YU       0.156000
     45 H51          2.7860     0.0000     1.6470 h4         1 3YU       0.181000
     46 H60         -8.1440     0.3390     8.0370 h5         1 3YU       0.083100
     47 H41         -1.2160     0.5620     3.6210 hn         1 3YU       0.302500
     48 H42         -2.3430    -0.9250     1.3420 h1         1 3YU       0.110700
     49 H43         -2.4610     1.1410    -0.0690 hc         1 3YU       0.065200
     50 H44         -2.1850     2.1100     1.3860 hc         1 3YU       0.065200
     51 H45         -4.5430    -0.0700    -0.3910 ha         1 3YU       0.123500
     52 H46         -6.9480    -0.1820     0.1400 ha         1 3YU       0.125000
     53 H47         -7.8210     0.9390     2.1550 ha         1 3YU       0.129000
     54 H48         -6.2860     2.1680     3.6440 ha         1 3YU       0.125000
     55 H49         -3.8810     2.2790     3.1150 ha         1 3YU       0.123500
     56 H50          0.6010    -0.0000     3.0670 hn         1 3YU       0.295700
     57 H58         -5.0110    -1.1590     5.3280 ha         1 3YU       0.190000
     58 H59         -2.3110     0.2380     5.7750 ha         1 3YU       0.122000
     59 H61          1.3370     0.0020    -5.3650 hn         1 3YU       0.334700
     60 H63          6.2130    -0.7830    -5.5640 hn         1 3YU       0.438800
     61 H62          6.3870     0.7810    -4.8360 hn         1 3YU       0.438800
     62 C31         -3.0380    -0.3460     3.7680 c          1 3YU       0.663300
     63 Cl1         -1.8040     0.1990    10.3880 cl         1 3YU      -0.088400
@<TRIPOS>BOND
     1    32    14 2   
     2    32    33 1   
     3    14    28 1   
     4    33    34 2   
     5    28    34 1   
     6    28    27 1   
     7    27     9 ar  
     8    27    26 ar  
     9     9    10 ar  
    10    25    13 1   
    11    25    17 1   
    12    20    21 ar  
    13    20    19 ar  
    14    13     2 2   
    15    21    22 ar  
    16    18    19 1   
    17    18    16 1   
    18    26    29 1   
    19    26    12 ar  
    20    10    11 ar  
    21    29    30 2   
    22    19    24 ar  
    23    17    16 1   
    24    17     1 2   
    25    15    16 1   
    26    15    62 1   
    27     2     1 1   
    28     2     6 1   
    29     5     6 ar  
    30     5     4 ar  
    31    22    23 ar  
    32    35     4 1   
    33    35    36 1   
    34    11    12 ar  
    35    11    63 1   
    36    30    62 1   
    37     6     8 ar  
    38     4     3 ar  
    39    62    31 2   
    40    24    23 ar  
    41    36    37 2   
    42     8     7 ar  
    43     3    37 1   
    44     3     7 ar  
    45    37    38 1   
    46     5    39 1   
    47     7    40 1   
    48     8    41 1   
    49     9    42 1   
    50    10    43 1   
    51    12    44 1   
    52    13    45 1   
    53    14    46 1   
    54    15    47 1   
    55    16    48 1   
    56    18    49 1   
    57    18    50 1   
    58    20    51 1   
    59    21    52 1   
    60    22    53 1   
    61    23    54 1   
    62    24    55 1   
    63    25    56 1   
    64    29    57 1   
    65    30    58 1   
    66    35    59 1   
    67    38    60 1   
    68    38    61 1   
@<TRIPOS>SUBSTRUCTURE
     1 3YU         1 TEMP              0 ****  ****    0 ROOT
