@<TRIPOS>MOLECULE
3YU
   63    70     1     0     0
SMALL
bcc


@<TRIPOS>ATOM
      1 N14          0.0000     0.0000     0.0000 n2         1 3YU      -0.058000
      2 C13          1.3480     0.0000     0.0000 c2         1 3YU      -0.073000
      3 C18          3.8800     0.0020    -3.4200 ca         1 3YU      -0.203000
      4 C17          2.4810     0.0020    -3.5850 ca         1 3YU      -0.117000
      5 C16          1.6570     0.0000    -2.4650 ca         1 3YU      -0.107000
      6 C15          2.2230     0.0000    -1.1980 ca         1 3YU       0.049000
      7 C19          4.4320    -0.0030    -2.1340 ca         1 3YU      -0.012000
      8 C20          3.6160     0.0010    -1.0440 ca         1 3YU      -0.159000
      9 C21         -5.5790    -0.6390     9.3780 c2         1 3YU      -0.035000
     10 C22         -4.4400    -0.3470    10.1040 c2         1 3YU      -0.135000
     11 C23         -3.2250    -0.1680     9.4620 c2         1 3YU      -0.061000
     12 C24         -3.1410    -0.2790     8.0890 c2         1 3YU      -0.169000
     13 C12          1.7610     0.0000     1.2950 c2         1 3YU      -0.342000
     14 C33         -7.8760    -0.4670     7.3650 c2         1 3YU      -0.231000
     15 N1          -1.9560     0.1200     3.1130 n7         1 3YU      -0.048000
     16 C2          -1.8750     0.0010     1.6550 c3         1 3YU       0.050000
     17 C3          -0.4280    -0.0000     1.2320 c2         1 3YU      -0.288000
     18 C4          -2.5960     1.1820     1.0050 c3         1 3YU      -0.066000
     19 C5          -4.0660     1.1140     1.3290 ca         1 3YU      -0.084000
     20 C6          -4.9260     0.4230     0.4950 ca         1 3YU      -0.093000
     21 C7          -6.2750     0.3600     0.7930 ca         1 3YU      -0.091000
     22 C8          -6.7640     0.9870     1.9230 ca         1 3YU      -0.091000
     23 C9          -5.9040     1.6780     2.7570 ca         1 3YU      -0.091000
     24 C10         -4.5540     1.7380     2.4620 ca         1 3YU      -0.093000
     25 N11          0.6340    -0.0000     2.0670 na         1 3YU       0.371000
     26 C25         -4.2840    -0.5740     7.3420 c3         1 3YU       0.071000
     27 C26         -5.5120    -0.7600     7.9990 c2         1 3YU      -0.185000
     28 N27         -6.6650    -1.0560     7.2630 na         1 3YU       0.343000
     29 C29         -4.2020    -0.6950     5.8790 c2         1 3YU       0.060000
     30 C30         -3.1200    -0.2270     5.2230 c2         1 3YU      -0.163000
     31 O32         -3.9470    -0.8670     3.1480 o          1 3YU      -0.387000
     32 N34         -8.6650    -1.0500     6.5010 n2         1 3YU      -0.128000
     33 N35         -8.0350    -1.9670     5.8590 n2         1 3YU       0.039000
     34 N36         -6.8110    -2.0300     6.2590 n2         1 3YU      -0.229000
     35 N37          2.2420     0.0020    -4.9360 na         1 3YU       0.246000
     36 N38          3.4610     0.0030    -5.6190 n2         1 3YU      -0.258000
     37 C39          4.4520     0.0020    -4.7670 c2         1 3YU      -0.028000
     38 N40          5.8130    -0.0010    -5.0850 nv         1 3YU       0.080000
     39 H52          0.5860     0.1140    -2.5800 ha         1 3YU       0.126000
     40 H53          5.5070    -0.0020    -2.0050 ha         1 3YU       0.094000
     41 H54          4.0460     0.0060    -0.0500 ha         1 3YU       0.104000
     42 H55         -6.5240    -0.7800     9.8890 ha         1 3YU       0.117000
     43 H56         -4.4970    -0.2560    11.1820 ha         1 3YU       0.126000
     44 H57         -2.1890    -0.1360     7.5910 ha         1 3YU       0.135000
     45 H51          2.7860     0.0000     1.6470 h4         1 3YU       0.161000
     46 H60         -8.1440     0.3390     8.0370 h5         1 3YU       0.173000
     47 H41         -1.2070     0.5450     3.6230 hn         1 3YU       0.085000
     48 H42         -2.3430    -0.9250     1.3420 h1         1 3YU       0.115000
     49 H43         -2.1850     2.1100     1.3860 hc         1 3YU       0.073500
     50 H44         -2.4610     1.1410    -0.0690 hc         1 3YU       0.073500
     51 H45         -4.5430    -0.0700    -0.3910 ha         1 3YU       0.100500
     52 H46         -6.9480    -0.1820     0.1400 ha         1 3YU       0.098500
     53 H47         -7.8210     0.9390     2.1550 ha         1 3YU       0.103000
     54 H48         -6.2860     2.1680     3.6440 ha         1 3YU       0.098500
     55 H49         -3.8810     2.2790     3.1150 ha         1 3YU       0.100500
     56 H50          0.6010    -0.0000     3.0670 hn         1 3YU       0.068000
     57 H58         -3.6820    -1.3410     6.5770 DU         1 3YU       0.071000
     58 H59         -2.8620    -1.1380     4.6980 DU         1 3YU       0.039000
     59 H61          1.3370     0.0020    -5.3650 hn         1 3YU       0.101000
     60 H63          6.1110    -0.2510    -6.0070 hn         1 3YU       0.064000
     61 H62          6.4890     0.2590    -4.3940 hn         1 3YU       0.064000
     62 C31         -3.0380    -0.3460     3.7680 c3         1 3YU       0.347000
     63 Cl1         -1.8040     0.1990    10.3880 cl         1 3YU       0.078000
@<TRIPOS>BOND
     1     1     2 1   
     2     1    17 1   
     3     2     6 1   
     4     2    13 1   
     5     3     4 1   
     6     3     7 1   
     7     3    37 1   
     8     4     5 1   
     9     4    35 1   
    10     5     6 1   
    11     5    39 1   
    12     6     8 1   
    13     7     8 1   
    14     7    40 1   
    15     8    41 1   
    16     9    10 1   
    17     9    27 1   
    18     9    42 1   
    19    10    11 1   
    20    10    43 1   
    21    11    12 1   
    22    11    63 1   
    23    12    26 1   
    24    12    44 1   
    25    13    25 1   
    26    13    45 1   
    27    14    28 1   
    28    14    32 1   
    29    14    46 1   
    30    15    16 1   
    31    15    47 1   
    32    15    62 1   
    33    16    17 1   
    34    16    18 1   
    35    16    48 1   
    36    17    25 1   
    37    18    19 1   
    38    18    49 1   
    39    18    50 1   
    40    19    20 1   
    41    19    24 1   
    42    20    21 1   
    43    20    51 1   
    44    21    22 1   
    45    21    52 1   
    46    22    23 1   
    47    22    53 1   
    48    23    24 1   
    49    23    54 1   
    50    24    55 1   
    51    25    56 1   
    52    26    27 1   
    53    26    29 1   
    54    26    57 1   
    55    27    28 1   
    56    28    34 1   
    57    29    30 1   
    58    29    57 1   
    59    30    58 1   
    60    30    62 1   
    61    31    62 1   
    62    32    33 1   
    63    33    34 1   
    64    35    36 1   
    65    35    59 1   
    66    36    37 1   
    67    37    38 1   
    68    38    60 1   
    69    38    61 1   
    70    58    62 1   
@<TRIPOS>SUBSTRUCTURE
     1 3YU         1 TEMP              0 ****  ****    0 ROOT
