@<TRIPOS>MOLECULE
3YV
   53    56     1     0     0
SMALL
bcc


@<TRIPOS>ATOM
      1 C4           0.0000     0.0000     0.0000 c3         1 3YV      -0.032400
      2 C5           1.5300     0.0000     0.0000 c3         1 3YV       0.127500
      3 C6           2.1490     1.1960    -2.0630 ca         1 3YV       0.751900
      4 N1           2.0180     1.1970    -0.6900 nu         1 3YV      -0.503900
      5 C7           2.3650     1.1170    -4.7110 ca         1 3YV      -0.052500
      6 C8           2.4720     1.0720    -6.1820 c          1 3YV       0.346600
      7 N2           1.8240     0.1040    -2.7510 nb         1 3YV      -0.433000
      8 C9           2.7140     2.2850    -4.0020 ca         1 3YV       0.538900
      9 C10          3.5870     4.6390    -4.0550 ca         1 3YV      -0.044400
     10 C11          4.2380     4.5690    -2.8350 ca         1 3YV      -0.106000
     11 C12          4.5910     5.7310    -2.1700 ca         1 3YV      -0.071000
     12 N3           1.9260     0.0600    -4.0340 nb         1 3YV      -0.143000
     13 C13          4.2930     6.9640    -2.7260 ca         1 3YV      -0.066000
     14 C14          3.6410     7.0340    -3.9460 ca         1 3YV      -0.058200
     15 C15          3.2880     5.8710    -4.6110 ca         1 3YV      -0.089000
     16 N4           2.1090    -0.1370    -6.8980 nz         1 3YV       0.163600
     17 O            2.8270     2.0290    -6.7790 o          1 3YV      -0.452100
     18 N9           2.5930     2.2840    -2.6770 nb         1 3YV      -0.696000
     19 C3          -0.5100     1.2490     0.7220 c3         1 3YV      -0.042400
     20 C2          -0.0000     1.2490     2.1650 c3         1 3YV      -0.013400
     21 C1           1.5300     1.2490     2.1650 c3         1 3YV      -0.059400
     22 C            2.0400     0.0000     1.4420 c3         1 3YV      -0.064500
     23 N            3.4930     0.1590     1.4300 nz         1 3YV       0.052400
     24 N5           3.2180     3.4220    -4.7490 nu         1 3YV      -0.271300
     25 N6           3.3290     8.3250    -4.5270 na         1 3YV       0.671800
     26 N8           2.6950     8.5360    -5.7140 nc         1 3YV      -0.618800
     27 C17          2.5950     9.8410    -5.8980 cd         1 3YV       0.276900
     28 C16          3.1760    10.4720    -4.8080 cd         1 3YV       0.276900
     29 N7           3.6180     9.5390    -3.9830 nc         1 3YV      -0.618800
     30 H1          -0.3500     0.1260    -1.0170 hc         1 3YV       0.049700
     31 H2          -0.3500    -0.9510     0.3830 hc         1 3YV       0.049700
     32 H3           1.8890    -0.8870    -0.5080 h1         1 3YV       0.074700
     33 H4           2.1990     2.0340    -0.1730 hn         1 3YV       0.317800
     34 H5           4.4720     3.6040    -2.4000 ha         1 3YV       0.105000
     35 H6           5.1190     5.6770    -1.2260 ha         1 3YV       0.114000
     36 H7           4.5690     7.8740    -2.2060 ha         1 3YV       0.148000
     37 H8           2.7720     5.9260    -5.5610 ha         1 3YV       0.141000
     38 H9           2.6750    -0.8980    -6.5770 hn         1 3YV       0.252467
     39 H10          1.1440    -0.3460    -6.7330 hn         1 3YV       0.252467
     40 H11         -1.5870     1.1830     0.8190 hc         1 3YV       0.041700
     41 H12         -0.2580     2.1220     0.1320 hc         1 3YV       0.041700
     42 H13         -0.2680     2.1890     2.6320 hc         1 3YV       0.049700
     43 H14         -0.4730     0.4360     2.7030 hc         1 3YV       0.049700
     44 H15          1.8800     1.1310     3.1830 hc         1 3YV       0.041700
     45 H16          1.8800     2.1960     1.7740 hc         1 3YV       0.041700
     46 H17          1.7840    -0.8990     1.9910 hx         1 3YV       0.115700
     47 H18          3.7220     1.1240     1.2930 hn         1 3YV       0.230800
     48 H19          3.8810    -0.3850     0.6840 hn         1 3YV       0.230800
     49 H21          3.3500     3.3510    -5.7390 hn         1 3YV       0.341800
     50 H22          2.1400    10.3310    -6.7500 h4         1 3YV       0.026100
     51 H23          3.2540    11.5430    -4.6590 h4         1 3YV       0.026100
     52 H43          2.3260    -0.0280    -7.8690 hn         1 3YV       0.252467
     53 HN3          3.8720    -0.1710     2.2950 hn         1 3YV       0.230800
@<TRIPOS>BOND
     1     1     2 1   
     2     1    19 1   
     3     1    30 1   
     4     1    31 1   
     5     2     4 1   
     6     2    22 1   
     7     2    32 1   
     8     3     4 1   
     9     3     7 ar  
    10     3    18 ar  
    11     4    33 1   
    12     5     6 1   
    13     5     8 ar  
    14     5    12 ar  
    15     6    16 1   
    16     6    17 2   
    17     7    12 ar  
    18     8    18 ar  
    19     8    24 1   
    20     9    10 ar  
    21     9    15 ar  
    22     9    24 1   
    23    10    11 ar  
    24    10    34 1   
    25    11    13 ar  
    26    11    35 1   
    27    13    14 ar  
    28    13    36 1   
    29    14    15 ar  
    30    14    25 1   
    31    15    37 1   
    32    16    38 1   
    33    16    39 1   
    34    16    52 1   
    35    19    20 1   
    36    19    40 1   
    37    19    41 1   
    38    20    21 1   
    39    20    42 1   
    40    20    43 1   
    41    21    22 1   
    42    21    44 1   
    43    21    45 1   
    44    22    23 1   
    45    22    46 1   
    46    23    47 1   
    47    23    48 1   
    48    23    53 1   
    49    24    49 1   
    50    25    26 1   
    51    25    29 1   
    52    26    27 2   
    53    27    28 1   
    54    27    50 1   
    55    28    29 2   
    56    28    51 1   
@<TRIPOS>SUBSTRUCTURE
     1 3YV         1 TEMP              0 ****  ****    0 ROOT
