@<TRIPOS>MOLECULE
3YW
   41    41     1     0     0
SMALL
bcc


@<TRIPOS>ATOM
      1 O3           0.0000     0.0000     0.0000 oh         1 3YW      -0.593800
      2 C4           3.4640    -0.1260     1.4450 c3         1 3YW       0.201400
      3 C5           1.9380     0.0000     1.4430 c3         1 3YW       0.177100
      4 O4           5.9650     0.8750     2.5580 os         1 3YW      -0.401600
      5 C6           1.4290     0.0000     0.0000 c3         1 3YW       0.201400
      6 C7           5.5510     1.9770     3.3670 c3         1 3YW       0.156100
      7 C8           6.2500     3.2510     2.8890 c3         1 3YW       0.226400
      8 C9           5.9260     1.7060     4.8270 c3         1 3YW       0.143100
      9 O5           5.8110     3.5680     1.5660 oh         1 3YW      -0.582800
     10 C10          5.2700     0.3970     5.2790 c3         1 3YW       0.156100
     11 O6           5.4610     2.7810     5.6470 oh         1 3YW      -0.582800
     12 O7           5.6730     0.0990     6.6180 oh         1 3YW      -0.585800
     13 O            6.6570    -3.2070     3.8420 o          1 3YW      -0.652100
     14 C            5.5950    -3.1640     4.4240 c          1 3YW       0.571100
     15 C1           4.8970    -4.4430     4.8120 c3         1 3YW      -0.066100
     16 N            5.0380    -1.9750     4.7230 ns         1 3YW      -0.172900
     17 C2           5.7140    -0.7330     4.3460 c3         1 3YW      -0.021300
     18 C3           5.3490    -0.3670     2.9040 c3         1 3YW       0.375900
     19 O1           3.9300    -0.2440     2.7900 os         1 3YW      -0.438600
     20 O2           1.5610     1.2210     2.0810 oh         1 3YW      -0.572800
     21 H1          -0.3140    -0.1060    -0.8830 ho         1 3YW       0.393000
     22 H2           3.7540    -1.0060     0.8840 h1         1 3YW       0.011700
     23 H3           3.8990     0.7540     0.9870 h1         1 3YW       0.011700
     24 H4           1.5060    -0.8370     1.9790 h1         1 3YW       0.008700
     25 H5           1.7910    -0.8850    -0.5100 h1         1 3YW      -0.004300
     26 H6           1.7910     0.8850    -0.5110 h1         1 3YW      -0.004300
     27 H7           4.4780     2.0970     3.2890 h1         1 3YW       0.052700
     28 H8           6.0050     4.0690     3.5560 h1         1 3YW      -0.004300
     29 H9           7.3220     3.0970     2.8870 h1         1 3YW      -0.004300
     30 H10          7.0020     1.6190     4.9120 h1         1 3YW       0.022700
     31 H11          6.2030     4.3800     1.2910 ho         1 3YW       0.387000
     32 H12          4.1930     0.5000     5.2340 h1         1 3YW       0.030700
     33 H13          6.1330     3.0200     6.2630 ho         1 3YW       0.397000
     34 H14          4.9480     0.2410     7.2030 ho         1 3YW       0.396000
     35 H15          4.8260    -4.5020     5.8910 hc         1 3YW       0.022700
     36 H16          3.9020    -4.4560     4.3830 hc         1 3YW       0.022700
     37 H17          5.4620    -5.2890     4.4400 hc         1 3YW       0.022700
     38 H18          4.1650    -1.9400     5.2120 hn         1 3YW       0.175500
     39 H19          6.7870    -0.8620     4.4230 h1         1 3YW       0.082700
     40 H20          5.7040    -1.1430     2.2360 h2         1 3YW       0.047700
     41 H21          0.8260     1.0640     2.6510 ho         1 3YW       0.394000
@<TRIPOS>BOND
     1     1     5 1   
     2     1    21 1   
     3     2     3 1   
     4     2    19 1   
     5     2    22 1   
     6     2    23 1   
     7     3     5 1   
     8     3    20 1   
     9     3    24 1   
    10     4     6 1   
    11     4    18 1   
    12     5    25 1   
    13     5    26 1   
    14     6     7 1   
    15     6     8 1   
    16     6    27 1   
    17     7     9 1   
    18     7    28 1   
    19     7    29 1   
    20     8    10 1   
    21     8    11 1   
    22     8    30 1   
    23     9    31 1   
    24    10    12 1   
    25    10    17 1   
    26    10    32 1   
    27    11    33 1   
    28    12    34 1   
    29    13    14 2   
    30    14    15 1   
    31    14    16 1   
    32    15    35 1   
    33    15    36 1   
    34    15    37 1   
    35    16    17 1   
    36    16    38 1   
    37    17    18 1   
    38    17    39 1   
    39    18    19 1   
    40    18    40 1   
    41    20    41 1   
@<TRIPOS>SUBSTRUCTURE
     1 3YW         1 TEMP              0 ****  ****    0 ROOT
