@<TRIPOS>MOLECULE
3YX
   51    55     1     0     0
SMALL
bcc


@<TRIPOS>ATOM
      1 C1           0.0000     0.0000     0.0000 c3         1 3YX      -0.080000
      2 C2           1.5300     0.0000     0.0000 c3         1 3YX      -0.091000
      3 C3           2.0400     0.0000     1.4420 c3         1 3YX      -0.121000
      4 C11         -1.3370    -4.6700     4.3080 ca         1 3YX      -0.140000
      5 C12         -1.6540    -5.7140     5.1290 ca         1 3YX       0.021000
      6 C14         -4.1590     0.1340     4.5310 c2         1 3YX      -0.415000
      7 C17         -1.7390     0.0530     3.4360 c2         1 3YX       0.024000
      8 C19         -3.3760    -1.0350     4.6190 c2         1 3YX       0.023000
      9 C22         -3.4620    -4.4050     6.0820 ca         1 3YX      -0.187000
     10 C23         -2.7190    -5.5970     6.0270 ca         1 3YX      -0.080000
     11 C24         -3.3150    -6.4910     7.0210 c2         1 3YX      -0.133000
     12 C25         -4.3310    -5.8250     7.5920 c2         1 3YX      -0.221000
     13 C4           1.5310     1.2480     2.1640 DU         1 3YX      -0.386000
     14 C5          -0.0000     1.2480     2.1640 c3         1 3YX      -0.211000
     15 C6          -0.5100     1.2490     0.7220 c3         1 3YX      -0.116000
     16 N7          -0.4880     0.0510     2.8550 nu         1 3YX       0.151000
     17 N8           2.0200     1.2480     3.5480 nz         1 3YX       0.852000
     18 C9          -3.1230    -3.3480     5.2340 ca         1 3YX      -0.189000
     19 C10         -2.0650    -3.4900     4.3540 ca         1 3YX      -0.105000
     20 N13         -3.8510    -2.1540     5.2730 nu         1 3YX       0.354000
     21 N15         -3.6640     1.1940     3.8980 n2         1 3YX       0.119000
     22 N16         -2.4910     1.1490     3.3690 n2         1 3YX      -0.159000
     23 N18         -2.1700    -1.0360     4.0590 n2         1 3YX      -0.191000
     24 O21         -5.9740    -0.8110     5.6520 o          1 3YX      -0.264000
     25 N26         -4.4350    -4.5750     7.0440 na         1 3YX       0.331000
     26 N27         -6.2080     1.3320     5.1200 nz         1 3YX       0.838000
     27 H1          -0.3600    -0.8840     0.5130 hc         1 3YX       0.077500
     28 H2          -0.3600     0.0030    -1.0220 hc         1 3YX       0.077500
     29 H3           1.8900    -0.8860    -0.5090 hc         1 3YX       0.088000
     30 H4           1.8900     0.8860    -0.5090 hc         1 3YX       0.088000
     31 H5           1.6770    -0.8840     1.9520 hc         1 3YX       0.079000
     32 H6           3.1240     0.0020     1.4410 hc         1 3YX       0.079000
     33 H8          -1.0800    -6.6320     5.0860 ha         1 3YX       0.117000
     34 H9          -2.9960    -7.5000     7.2530 ha         1 3YX       0.148000
     35 H10         -4.9730    -6.2180     8.3710 h4         1 3YX       0.158000
     36 H11          1.8890     2.1320     1.6490 hx         1 3YX       0.161000
     37 H12          0.6460     2.1140     2.0910 DU         1 3YX       0.221000
     38 H13         -1.3950     1.8470     0.9050 hc         1 3YX       0.089000
     39 H14          0.1120     1.9880     0.2320 hc         1 3YX       0.089000
     40 H15          0.1040    -0.7510     2.9430 hn         1 3YX       0.109000
     41 H16          2.9600     1.5920     3.5700 hn         1 3YX       0.026333
     42 H17          1.4360     1.8370     4.1090 hn         1 3YX       0.026333
     43 H19         -1.8010    -2.6710     3.6950 ha         1 3YX       0.153000
     44 H20         -4.6980    -2.1020     5.8030 hn         1 3YX       0.112000
     45 H21         -5.1150    -3.8890     7.3020 hn         1 3YX       0.061000
     46 H22         -5.6690     2.0610     5.5460 hn         1 3YX       0.045333
     47 H23         -7.0690     1.2200     5.6160 hn         1 3YX       0.045333
     48 H7          -0.5110    -4.7650     3.6130 ha         1 3YX       0.110000
     49 H83          2.0150     0.3120     3.9040 hn         1 3YX       0.026333
     50 H273        -6.4070     1.5780     4.1700 hn         1 3YX       0.045333
     51 C20         -5.5030     0.1850     5.1370 c2         1 3YX       0.141000
@<TRIPOS>BOND
     1     1     2 1   
     2     1    15 1   
     3     1    27 1   
     4     1    28 1   
     5     2     3 1   
     6     2    29 1   
     7     2    30 1   
     8     3    13 1   
     9     3    31 1   
    10     3    32 1   
    11     4     5 1   
    12     4    19 1   
    13     4    48 1   
    14     5    10 1   
    15     5    33 1   
    16     6     8 1   
    17     6    21 1   
    18     6    51 1   
    19     7    16 1   
    20     7    22 1   
    21     7    23 1   
    22     8    20 1   
    23     8    23 1   
    24     9    10 1   
    25     9    18 1   
    26     9    25 1   
    27    10    11 1   
    28    11    12 1   
    29    11    34 1   
    30    12    25 1   
    31    12    35 1   
    32    13    14 1   
    33    13    17 1   
    34    13    36 1   
    35    13    37 1   
    36    14    15 1   
    37    14    16 1   
    38    14    37 1   
    39    15    38 1   
    40    15    39 1   
    41    16    40 1   
    42    17    41 1   
    43    17    42 1   
    44    17    49 1   
    45    18    19 1   
    46    18    20 1   
    47    19    43 1   
    48    20    44 1   
    49    21    22 1   
    50    24    51 1   
    51    25    45 1   
    52    26    46 1   
    53    26    47 1   
    54    26    50 1   
    55    26    51 1   
@<TRIPOS>SUBSTRUCTURE
     1 3YX         1 TEMP              0 ****  ****    0 ROOT
