@<TRIPOS>MOLECULE
molecule
   38    41     1     0     0
SMALL
bcc


@<TRIPOS>ATOM
      1 C1           0.0000     0.0000     0.0000 ca         1 3YY      -0.136000
      2 C2           1.3830     0.0000     0.0000 ca         1 3YY      -0.107000
      3 C3          -0.6940     0.0020     1.1970 ca         1 3YY      -0.107000
      4 C4           5.5160     1.4080     6.5320 ca         1 3YY      -0.083500
      5 C5           6.2540    -0.2990     4.9970 ca         1 3YY      -0.083500
      6 C6           2.0750     0.0000     1.1950 ca         1 3YY      -0.140000
      7 C7          -0.0070    -0.0030     2.3950 ca         1 3YY      -0.140000
      8 C8           6.7920     1.4840     7.0530 ca         1 3YY      -0.167500
      9 C9           7.5290    -0.2090     5.5160 ca         1 3YY      -0.167500
     10 C10          1.5280     0.0020     4.8520 cc         1 3YY      -0.081300
     11 C11          5.2400     0.5140     5.4990 ca         1 3YY      -0.116500
     12 C12          2.5320     0.0020     5.7550 cd         1 3YY      -0.309600
     13 C13          1.3820     0.0010     2.3970 ca         1 3YY       0.031800
     14 C14          7.7990     0.6780     6.5460 ca         1 3YY       0.140900
     15 C15          3.7500     0.0000     5.0460 cd         1 3YY       0.416800
     16 C16          2.4290    -1.4110     7.7960 c          1 3YY       0.703500
     17 C17          0.4420    -0.5460     8.2840 c          1 3YY       0.810500
     18 C18          2.3780     0.0030     7.2540 c3         1 3YY       0.096000
     19 N19          3.4740    -0.0000     3.7600 nc         1 3YY      -0.497800
     20 N20          2.0810     0.0010     3.6120 na         1 3YY       0.158300
     21 N21          1.2330    -1.6200     8.3810 ns         1 3YY      -0.586500
     22 N22          1.0350     0.4720     7.6370 ns         1 3YY      -0.600900
     23 O23          3.3510    -2.1940     7.7170 o          1 3YY      -0.560500
     24 O24         -0.6850    -0.4940     8.7350 o          1 3YY      -0.649500
     25 F25          9.0370     0.7920     7.0710 f          1 3YY      -0.137900
     26 H1          -0.5410     0.0020    -0.9390 ha         1 3YY       0.136000
     27 H2           1.9240    -0.0010    -0.9390 ha         1 3YY       0.139500
     28 H3          -1.7770    -0.0000     1.1950 ha         1 3YY       0.139500
     29 H5           6.0440    -0.9940     4.1930 ha         1 3YY       0.145500
     30 H6           3.1590     0.0020     1.1930 ha         1 3YY       0.147500
     31 H7          -0.5510    -0.0020     3.3320 ha         1 3YY       0.147500
     32 H8           7.0070     2.1780     7.8570 ha         1 3YY       0.150000
     33 H9           8.3190    -0.8390     5.1250 ha         1 3YY       0.150000
     34 H10          0.4680     0.0030     5.0770 h4         1 3YY       0.183000
     35 H18          3.1400     0.6150     7.7210 h1         1 3YY       0.096700
     36 HN21         0.9680    -2.4750     8.8300 hn         1 3YY       0.364500
     37 HN22         0.6390     1.3710     7.4460 hn         1 3YY       0.370500
     38 H4           4.7300     2.0400     6.9270 ha         1 3YY       0.145500
@<TRIPOS>BOND
     1     2     1 ar
     2     1     3 ar
     3     1    26 1
     4     2     6 ar
     5     2    27 1
     6     3     7 ar
     7     3    28 1
     8    11     4 ar
     9     4     8 ar
    10     4    38 1
    11    11     5 ar
    12     5     9 ar
    13     5    29 1
    14     6    13 ar
    15     6    30 1
    16    13     7 ar
    17     7    31 1
    18     8    14 ar
    19     8    32 1
    20     9    14 ar
    21     9    33 1
    22    10    20 1
    23    10    12 2
    24    10    34 1
    25    15    11 1
    26    18    12 1
    27    12    15 1
    28    13    20 1
    29    14    25 1
    30    19    15 2
    31    21    16 1
    32    16    18 1
    33    16    23 2
    34    24    17 2
    35    17    21 1
    36    17    22 1
    37    22    18 1
    38    18    35 1
    39    20    19 1
    40    21    36 1
    41    22    37 1
@<TRIPOS>SUBSTRUCTURE
     1 3YY         1 TEMP              0 ****  ****    0 ROOT
