@<TRIPOS>MOLECULE
3YY
   38    41     1     0     0
SMALL
bcc


@<TRIPOS>ATOM
      1 C1           0.0000     0.0000     0.0000 ca         1 3YY      -0.097000
      2 C2           1.3830     0.0000     0.0000 ca         1 3YY      -0.081000
      3 C3          -0.6940     0.0020     1.1970 ca         1 3YY      -0.081000
      4 C4           5.5160     1.4080     6.5320 ca         1 3YY      -0.062500
      5 C5           6.2540    -0.2990     4.9970 ca         1 3YY      -0.062500
      6 C6           2.0750     0.0000     1.1950 ca         1 3YY      -0.102000
      7 C7          -0.0070    -0.0030     2.3950 ca         1 3YY      -0.102000
      8 C8           6.7920     1.4840     7.0530 ca         1 3YY      -0.132000
      9 C9           7.5290    -0.2090     5.5160 ca         1 3YY      -0.132000
     10 C10          1.5280     0.0020     4.8520 cc         1 3YY      -0.256300
     11 C11          5.2400     0.5140     5.4990 ca         1 3YY      -0.108500
     12 C12          2.5320     0.0020     5.7550 cd         1 3YY      -0.314600
     13 C13          1.3820     0.0010     2.3970 ca         1 3YY      -0.155200
     14 C14          7.7990     0.6780     6.5460 ca         1 3YY       0.107900
     15 C15          3.7500     0.0000     5.0460 cd         1 3YY       0.457800
     16 C16          2.4290    -1.4110     7.7960 c          1 3YY       0.614500
     17 C17          0.4420    -0.5460     8.2840 c          1 3YY       0.604500
     18 C18          2.3780     0.0030     7.2540 c3         1 3YY       0.018000
     19 N19          3.4740    -0.0000     3.7600 nc         1 3YY      -0.653800
     20 N20          2.0810     0.0010     3.6120 na         1 3YY       0.647300
     21 N21          1.2330    -1.6200     8.3810 ns         1 3YY      -0.166500
     22 N22          1.0350     0.4720     7.6370 ns         1 3YY      -0.210900
     23 O23          3.3510    -2.1940     7.7170 o          1 3YY      -0.600500
     24 O24         -0.6850    -0.4940     8.7350 o          1 3YY      -0.696500
     25 F25          9.0370     0.7920     7.0710 f          1 3YY      -0.127900
     26 H1          -0.5410     0.0020    -0.9390 ha         1 3YY       0.108000
     27 H2           1.9240    -0.0010    -0.9390 ha         1 3YY       0.109500
     28 H3          -1.7770    -0.0000     1.1950 ha         1 3YY       0.109500
     29 H5           6.0440    -0.9940     4.1930 ha         1 3YY       0.114000
     30 H6           3.1590     0.0020     1.1930 ha         1 3YY       0.123500
     31 H7          -0.5510    -0.0020     3.3320 ha         1 3YY       0.123500
     32 H8           7.0070     2.1780     7.8570 ha         1 3YY       0.120000
     33 H9           8.3190    -0.8390     5.1250 ha         1 3YY       0.120000
     34 H10          0.4680     0.0030     5.0770 h4         1 3YY       0.158000
     35 H18          3.1400     0.6150     7.7210 h1         1 3YY       0.063700
     36 HN21         0.9680    -2.4750     8.8300 hn         1 3YY       0.207500
     37 HN22         0.6390     1.3710     7.4460 hn         1 3YY       0.221500
     38 H4           4.7300     2.0400     6.9270 ha         1 3YY       0.114000
@<TRIPOS>BOND
     1     1     2 ar  
     2     1     3 ar  
     3     1    26 1   
     4     2     6 ar  
     5     2    27 1   
     6     3     7 ar  
     7     3    28 1   
     8     4     8 ar  
     9     4    11 ar  
    10     4    38 1   
    11     5     9 ar  
    12     5    11 ar  
    13     5    29 1   
    14     6    13 ar  
    15     6    30 1   
    16     7    13 ar  
    17     7    31 1   
    18     8    14 ar  
    19     8    32 1   
    20     9    14 ar  
    21     9    33 1   
    22    10    12 2   
    23    10    20 1   
    24    10    34 1   
    25    11    15 1   
    26    12    15 1   
    27    12    18 1   
    28    13    20 1   
    29    14    25 1   
    30    15    19 2   
    31    16    18 1   
    32    16    21 1   
    33    16    23 2   
    34    17    21 1   
    35    17    22 1   
    36    17    24 2   
    37    18    22 1   
    38    18    35 1   
    39    19    20 1   
    40    21    36 1   
    41    22    37 1   
@<TRIPOS>SUBSTRUCTURE
     1 3YY         1 TEMP              0 ****  ****    0 ROOT
