@<TRIPOS>MOLECULE
molecule
   66    71     1     0     0
SMALL
bcc


@<TRIPOS>ATOM
      1 C14          0.0000     0.0000     0.0000 ca         1 3YZ      -0.283300
      2 C13          1.3810     0.0000     0.0000 ca         1 3YZ      -0.038000
      3 C11          3.4430    -0.0000     1.6360 cc         1 3YZ      -0.153200
      4 C6           6.9190    -1.2240     6.3080 ca         1 3YZ      -0.098000
      5 C4           8.5910     0.5120     6.0840 ca         1 3YZ      -0.193000
      6 C15         -0.6800     0.0060     1.2090 ca         1 3YZ       0.461200
      7 C12          2.0400     0.0000     1.2340 ca         1 3YZ      -0.231100
      8 C5           8.1320    -0.6640     6.6930 ca         1 3YZ      -0.130600
      9 C7           6.1580    -0.6120     5.3100 ca         1 3YZ       0.113400
     10 C25          6.6230     0.5720     4.7090 ca         1 3YZ      -0.092200
     11 C3           7.8380     1.1280     5.1070 ca         1 3YZ       0.166100
     12 C10          3.4620    -0.0090     2.9950 cd         1 3YZ      -0.087700
     13 C17          1.2820    -0.0000     2.4230 ca         1 3YZ       0.483800
     14 C9           4.6760    -0.0110     3.8280 cd         1 3YZ       0.517100
     15 C21          1.0480     1.6570     6.7750 cx         1 3YZ      -0.137400
     16 C22          2.4910     2.0130     6.4130 cx         1 3YZ      -0.137400
     17 C30          6.6020    -0.8470    10.3550 c3         1 3YZ      -0.108400
     18 C29          6.8960    -1.6160     9.0620 c3         1 3YZ       0.085000
     19 C35          9.1550    -2.2670     9.9910 c3         1 3YZ       0.101000
     20 C20          1.5530     1.4450     5.3470 cx         1 3YZ      -0.155700
     21 C33          8.8370    -1.4910    11.2720 c3         1 3YZ       0.055500
     22 C31          7.3270    -1.5220    11.5200 c3         1 3YZ       0.121100
     23 C1           9.5490     2.7730     4.9630 c3         1 3YZ       0.124700
     24 N16         -0.0430     0.0060     2.3600 nb         1 3YZ      -0.712000
     25 N8           4.9700    -0.9160     4.7330 nc         1 3YZ      -0.597100
     26 N23          5.6710     0.9310     3.7760 na         1 3YZ      -0.117300
     27 N18          2.1690    -0.0010     3.4720 na         1 3YZ      -0.147100
     28 N28          8.3520    -1.7160     8.8920 n          1 3YZ      -0.494800
     29 N34          9.5340    -2.1110    12.4070 nz         1 3YZ      -0.827600
     30 O27         10.1320    -1.4720     7.5860 o          1 3YZ      -0.582100
     31 O32          6.8900    -2.8790    11.6310 oh         1 3YZ      -0.607800
     32 H1          -0.5470    -0.0000    -0.9350 ha         1 3YZ       0.146000
     33 H2           1.9390    -0.0050    -0.9290 ha         1 3YZ       0.142000
     34 H3           4.2920    -0.1780     0.9860 ha         1 3YZ       0.163000
     35 H4           6.5660    -2.1330     6.7800 ha         1 3YZ       0.148000
     36 H5           9.5360     0.9430     6.3890 ha         1 3YZ       0.157000
     37 H6          -1.7640     0.0060     1.2050 h4         1 3YZ       0.030100
     38 H9           2.7050     3.0720     6.3320 hc         1 3YZ       0.074700
     39 H10          3.2480     1.3310     6.7820 hc         1 3YZ       0.074700
     40 H11          5.5350    -0.8520    10.5430 hc         1 3YZ       0.080200
     41 H12          6.9520     0.1730    10.2550 hc         1 3YZ       0.080200
     42 H13          6.4690    -2.6090     9.1260 h1         1 3YZ       0.093700
     43 H14          6.4680    -1.0850     8.2200 h1         1 3YZ       0.093700
     44 H15         10.2080    -2.1630     9.7570 h1         1 3YZ       0.087200
     45 H16          8.9090    -3.3130    10.1300 h1         1 3YZ       0.087200
     46 H17          1.1940     2.1700     4.6270 hc         1 3YZ       0.100700
     47 H18          9.1610    -0.4640    11.1600 hx         1 3YZ       0.127700
     48 H19          7.1030    -0.9910    12.4370 h1         1 3YZ       0.044700
     49 H23          9.5890     3.8440     4.8000 h1         1 3YZ       0.049367
     50 H24         10.3600     2.2860     4.4360 h1         1 3YZ       0.049367
     51 H25          9.6090     2.5560     6.0230 h1         1 3YZ       0.049367
     52 H28          8.8420    -1.6490    12.9640 hn         1 3YZ       0.470133
     53 H29         10.4590    -1.7570    12.5480 hn         1 3YZ       0.470133
     54 H31          6.2450    -2.9470    12.3150 ho         1 3YZ       0.435000
     55 C26          8.9390    -1.3090     7.7480 c          1 3YZ       0.691700
     56 C24          5.7140     2.1010     2.8960 c3         1 3YZ       0.032600
     57 C19          1.7950     0.0050     4.8890 c3         1 3YZ       0.079300
     58 H7           0.3800     2.4980     6.9140 hc         1 3YZ       0.074700
     59 H20          5.9580     2.9820     3.4780 h1         1 3YZ       0.067367
     60 H21          4.7480     2.2360     2.4260 h1         1 3YZ       0.067367
     61 H22          6.4700     1.9520     2.1340 h1         1 3YZ       0.067367
     62 H26          0.8900    -0.5740     5.0260 h1         1 3YZ       0.078200
     63 H27          2.5950    -0.4310     5.4750 h1         1 3YZ       0.078200
     64 H343         9.4640    -3.1090    12.4210 hn         1 3YZ       0.470133
     65 O2           8.2880     2.2690     4.5190 os         1 3YZ      -0.332900
     66 H8           0.9220     0.7570     7.3650 hc         1 3YZ       0.074700
@<TRIPOS>BOND
     1    29    21 1   
     2    31    22 1   
     3    22    21 1   
     4    22    17 1   
     5    21    19 1   
     6    19    28 1   
     7    17    18 1   
     8    28    18 1   
     9    28    55 1   
    10    55    30 2   
    11    55     8 1   
    12     8     5 ar  
    13     8     4 ar  
    14     5    11 ar  
    15     4     9 ar  
    16    23    65 1   
    17    11    65 1   
    18    11    10 ar  
    19     9    10 ar  
    20     9    25 1   
    21    15    20 1   
    22    15    16 1   
    23    10    26 1   
    24    25    14 2   
    25    20    57 1   
    26    20    16 1   
    27    57    27 1   
    28    26    14 1   
    29    26    56 1   
    30    14    12 1   
    31    27    12 1   
    32    27    13 1   
    33    12     3 2   
    34    13    24 ar  
    35    13     7 ar  
    36    24     6 ar  
    37     3     7 1   
    38     7     2 ar  
    39     6     1 ar  
    40     2     1 ar  
    41     1    32 1   
    42     2    33 1   
    43     3    34 1   
    44     4    35 1   
    45     5    36 1   
    46     6    37 1   
    47    15    58 1   
    48    15    66 1   
    49    16    38 1   
    50    16    39 1   
    51    17    40 1   
    52    17    41 1   
    53    18    42 1   
    54    18    43 1   
    55    19    44 1   
    56    19    45 1   
    57    20    46 1   
    58    21    47 1   
    59    22    48 1   
    60    56    59 1   
    61    56    60 1   
    62    56    61 1   
    63    23    49 1   
    64    23    50 1   
    65    23    51 1   
    66    57    62 1   
    67    57    63 1   
    68    29    52 1   
    69    29    53 1   
    70    31    54 1   
    71    64    29 1   
@<TRIPOS>SUBSTRUCTURE
     1 3YZ         1 TEMP              0 ****  ****    0 ROOT
