@<TRIPOS>MOLECULE
3YZ
   66    71     1     0     0
SMALL
bcc


@<TRIPOS>ATOM
      1 C14          0.0000     0.0000     0.0000 ca         1 3YZ      -0.248300
      2 C13          1.3810     0.0000     0.0000 ca         1 3YZ      -0.006000
      3 C11          3.4430    -0.0000     1.6360 cc         1 3YZ      -0.133200
      4 C6           6.9190    -1.2240     6.3080 ca         1 3YZ      -0.081000
      5 C4           8.5910     0.5120     6.0840 ca         1 3YZ      -0.189000
      6 C15         -0.6800     0.0060     1.2090 ca         1 3YZ       0.428200
      7 C12          2.0400     0.0000     1.2340 ca         1 3YZ      -0.226100
      8 C5           8.1320    -0.6640     6.6930 ca         1 3YZ      -0.131600
      9 C7           6.1580    -0.6120     5.3100 ca         1 3YZ       0.090400
     10 C25          6.6230     0.5720     4.7090 ca         1 3YZ      -0.275200
     11 C3           7.8380     1.1280     5.1070 ca         1 3YZ       0.193100
     12 C10          3.4620    -0.0090     2.9950 cd         1 3YZ      -0.267700
     13 C17          1.2820    -0.0000     2.4230 ca         1 3YZ       0.252800
     14 C9           4.6760    -0.0110     3.8280 cd         1 3YZ       0.332100
     15 C21          1.0480     1.6570     6.7750 cx         1 3YZ      -0.077900
     16 C22          2.4910     2.0130     6.4130 cx         1 3YZ      -0.077900
     17 C30          6.6020    -0.8470    10.3550 c3         1 3YZ      -0.050400
     18 C29          6.8960    -1.6160     9.0620 c3         1 3YZ       0.008000
     19 C35          9.1550    -2.2670     9.9910 c3         1 3YZ       0.052000
     20 C20          1.5530     1.4450     5.3470 cx         1 3YZ      -0.134700
     21 C33          8.8370    -1.4910    11.2720 c3         1 3YZ      -0.117500
     22 C31          7.3270    -1.5220    11.5200 c3         1 3YZ       0.185100
     23 C1           9.5490     2.7730     4.9630 c3         1 3YZ       0.239700
     24 N16         -0.0430     0.0060     2.3600 nb         1 3YZ      -0.579000
     25 N8           4.9700    -0.9160     4.7330 nc         1 3YZ      -0.528100
     26 N23          5.6710     0.9310     3.7760 na         1 3YZ       0.360700
     27 N18          2.1690    -0.0010     3.4720 na         1 3YZ       0.336900
     28 N28          8.3520    -1.7160     8.8920 n          1 3YZ      -0.159800
     29 N34          9.5340    -2.1110    12.4070 nz         1 3YZ       0.043400
     30 O27         10.1320    -1.4720     7.5860 o          1 3YZ      -0.623100
     31 O32          6.8900    -2.8790    11.6310 oh         1 3YZ      -0.590800
     32 H1          -0.5470    -0.0000    -0.9350 ha         1 3YZ       0.119000
     33 H2           1.9390    -0.0050    -0.9290 ha         1 3YZ       0.109000
     34 H3           4.2920    -0.1780     0.9860 ha         1 3YZ       0.135000
     35 H4           6.5660    -2.1330     6.7800 ha         1 3YZ       0.122000
     36 H5           9.5360     0.9430     6.3890 ha         1 3YZ       0.141000
     37 H6          -1.7640     0.0060     1.2050 h4         1 3YZ      -0.018900
     38 H9           2.7050     3.0720     6.3320 hc         1 3YZ       0.046450
     39 H10          3.2480     1.3310     6.7820 hc         1 3YZ       0.046450
     40 H11          5.5350    -0.8520    10.5430 hc         1 3YZ       0.045700
     41 H12          6.9520     0.1730    10.2550 hc         1 3YZ       0.045700
     42 H13          6.4690    -2.6090     9.1260 h1         1 3YZ       0.069700
     43 H14          6.4680    -1.0850     8.2200 h1         1 3YZ       0.069700
     44 H15         10.2080    -2.1630     9.7570 h1         1 3YZ       0.055200
     45 H16          8.9090    -3.3130    10.1300 h1         1 3YZ       0.055200
     46 H17          1.1940     2.1700     4.6270 hc         1 3YZ       0.074700
     47 H18          9.1610    -0.4640    11.1600 hx         1 3YZ       0.102700
     48 H19          7.1030    -0.9910    12.4370 h1         1 3YZ       0.014700
     49 H23          9.5890     3.8440     4.8000 h1         1 3YZ       0.005367
     50 H24         10.3600     2.2860     4.4360 h1         1 3YZ       0.005367
     51 H25          9.6090     2.5560     6.0230 h1         1 3YZ       0.005367
     52 H28          8.8420    -1.6490    12.9640 hn         1 3YZ       0.241133
     53 H29         10.4590    -1.7570    12.5480 hn         1 3YZ       0.241133
     54 H31          6.2450    -2.9470    12.3150 ho         1 3YZ       0.424000
     55 C26          8.9390    -1.3090     7.7480 c          1 3YZ       0.630700
     56 C24          5.7140     2.1010     2.8960 c3         1 3YZ      -0.021400
     57 C19          1.7950     0.0050     4.8890 c3         1 3YZ      -0.019700
     58 H7           0.3800     2.4980     6.9140 hc         1 3YZ       0.046450
     59 H20          5.9580     2.9820     3.4780 h1         1 3YZ       0.036700
     60 H21          4.7480     2.2360     2.4260 h1         1 3YZ       0.036700
     61 H22          6.4700     1.9520     2.1340 h1         1 3YZ       0.036700
     62 H26          0.8900    -0.5740     5.0260 h1         1 3YZ       0.050700
     63 H27          2.5950    -0.4310     5.4750 h1         1 3YZ       0.050700
     64 H343         9.4640    -3.1090    12.4210 hn         1 3YZ       0.241133
     65 O2           8.2880     2.2690     4.5190 os         1 3YZ      -0.315900
     66 H8           0.9220     0.7570     7.3650 hc         1 3YZ       0.046450
@<TRIPOS>BOND
     1     1     2 ar  
     2     1     6 ar  
     3     1    32 1   
     4     2     7 ar  
     5     2    33 1   
     6     3     7 1   
     7     3    12 2   
     8     3    34 1   
     9     4     8 ar  
    10     4     9 ar  
    11     4    35 1   
    12     5     8 ar  
    13     5    11 ar  
    14     5    36 1   
    15     6    24 ar  
    16     6    37 1   
    17     7    13 ar  
    18     8    55 1   
    19     9    10 ar  
    20     9    25 1   
    21    10    11 ar  
    22    10    26 1   
    23    11    65 1   
    24    12    14 1   
    25    12    27 1   
    26    13    24 ar  
    27    13    27 1   
    28    14    25 2   
    29    14    26 1   
    30    15    16 1   
    31    15    20 1   
    32    15    58 1   
    33    15    66 1   
    34    16    20 1   
    35    16    38 1   
    36    16    39 1   
    37    17    18 1   
    38    17    22 1   
    39    17    40 1   
    40    17    41 1   
    41    18    28 1   
    42    18    42 1   
    43    18    43 1   
    44    19    21 1   
    45    19    28 1   
    46    19    44 1   
    47    19    45 1   
    48    20    46 1   
    49    20    57 1   
    50    21    22 1   
    51    21    29 1   
    52    21    47 1   
    53    22    31 1   
    54    22    48 1   
    55    23    49 1   
    56    23    50 1   
    57    23    51 1   
    58    23    65 1   
    59    26    56 1   
    60    27    57 1   
    61    28    55 1   
    62    29    52 1   
    63    29    53 1   
    64    29    64 1   
    65    30    55 2   
    66    31    54 1   
    67    56    59 1   
    68    56    60 1   
    69    56    61 1   
    70    57    62 1   
    71    57    63 1   
@<TRIPOS>SUBSTRUCTURE
     1 3YZ         1 TEMP              0 ****  ****    0 ROOT
