@<TRIPOS>MOLECULE
molecule
   61    65     1     0     0
SMALL
bcc


@<TRIPOS>ATOM
      1 C8           0.0000     0.0000     0.0000 ca         1 3Z0      -0.283300
      2 C7           1.3810     0.0000     0.0000 ca         1 3Z0      -0.037000
      3 C5           3.4420     0.0000     1.6380 cc         1 3Z0      -0.146200
      4 C15          6.9050    -1.2140     6.3250 ca         1 3Z0      -0.098000
      5 C17          8.5890     0.5090     6.0850 ca         1 3Z0      -0.192000
      6 C9          -0.6820     0.0060     1.2080 ca         1 3Z0       0.463200
      7 C6           2.0390     0.0000     1.2350 ca         1 3Z0      -0.233100
      8 C16          8.1220    -0.6570     6.7060 ca         1 3Z0      -0.129600
      9 C14          6.1490    -0.6060     5.3200 ca         1 3Z0       0.114400
     10 C21          6.6230     0.5670     4.7070 ca         1 3Z0      -0.092200
     11 C18          7.8420     1.1200     5.0990 ca         1 3Z0       0.167100
     12 C4           3.4600    -0.0080     2.9970 cd         1 3Z0      -0.093700
     13 C11          1.2800    -0.0000     2.4240 ca         1 3Z0       0.484800
     14 C12          4.6730    -0.0100     3.8320 cd         1 3Z0       0.518100
     15 C28          6.5770    -0.8260    10.3630 c3         1 3Z0      -0.090400
     16 C29          7.2960    -1.5020    11.5340 c3         1 3Z0      -0.103400
     17 C27          6.8750    -1.5970     9.0730 c3         1 3Z0       0.076000
     18 C32          9.1290    -2.2540    10.0120 c3         1 3Z0       0.097000
     19 C30          8.8070    -1.4760    11.2920 c3         1 3Z0       0.071500
     20 C1           1.5500     1.4440     5.3480 c3         1 3Z0      -0.116100
     21 C20          9.5650     2.7520     4.9410 c3         1 3Z0       0.125700
     22 N10         -0.0450     0.0060     2.3600 nb         1 3Z0      -0.714000
     23 N13          4.9590    -0.9080     4.7460 nc         1 3Z0      -0.595100
     24 N22          5.6740     0.9240     3.7700 na         1 3Z0      -0.120300
     25 N3           2.1660    -0.0010     3.4740 na         1 3Z0      -0.150100
     26 N26          8.3310    -1.7010     8.9090 n          1 3Z0      -0.492800
     27 N31          9.4970    -2.0970    12.4300 nz         1 3Z0      -0.807600
     28 O25         10.1190    -1.4590     7.6130 o          1 3Z0      -0.583100
     29 H1          -0.5460     0.0000    -0.9360 ha         1 3Z0       0.146000
     30 H2           1.9390    -0.0040    -0.9290 ha         1 3Z0       0.142000
     31 H3           4.2900     0.1870     0.9910 ha         1 3Z0       0.159000
     32 H4           6.5460    -2.1160     6.8070 ha         1 3Z0       0.146000
     33 H5           9.5380     0.9370     6.3860 ha         1 3Z0       0.158000
     34 H6          -1.7650     0.0060     1.2030 h4         1 3Z0       0.030100
     35 H9           7.0690    -0.9710    12.4500 hc         1 3Z0       0.063700
     36 H10          6.9620    -2.5300    11.6150 hc         1 3Z0       0.063700
     37 H11          6.4520    -1.0670     8.2290 h1         1 3Z0       0.088200
     38 H12          6.4460    -2.5900     9.1370 h1         1 3Z0       0.088200
     39 H13          8.8790    -3.2990    10.1510 h1         1 3Z0       0.078700
     40 H14         10.1830    -2.1530     9.7820 h1         1 3Z0       0.078700
     41 H15          9.1350    -0.4490    11.1810 hx         1 3Z0       0.124700
     42 H16          1.9190     2.1200     4.5870 hc         1 3Z0       0.046367
     43 H17          0.4880     1.6040     5.4890 hc         1 3Z0       0.046367
     44 H18          2.0700     1.6300     6.2800 hc         1 3Z0       0.046367
     45 H22          9.6320     2.5510     6.0030 h1         1 3Z0       0.050367
     46 H23          9.6160     3.8180     4.7590 h1         1 3Z0       0.050367
     47 H24         10.3620     2.2430     4.4130 h1         1 3Z0       0.050367
     48 H27          9.2720    -1.5990    13.2690 hn         1 3Z0       0.455133
     49 H28         10.4860    -2.0650    12.2790 hn         1 3Z0       0.455133
     50 C24          8.9240    -1.2970     7.7680 c          1 3Z0       0.692700
     51 C23          5.7270     2.0840     2.8780 c3         1 3Z0       0.032600
     52 C2           1.7910     0.0040     4.8890 c3         1 3Z0       0.041300
     53 H7           6.9310     0.1930    10.2640 hc         1 3Z0       0.077700
     54 H19          5.9890     2.9670     3.4480 h1         1 3Z0       0.066700
     55 H20          6.4720     1.9160     2.1100 h1         1 3Z0       0.066700
     56 H21          4.7580     2.2280     2.4150 h1         1 3Z0       0.066700
     57 H25          0.8890    -0.5770     5.0350 h1         1 3Z0       0.073700
     58 H26          2.5970    -0.4290     5.4700 h1         1 3Z0       0.073700
     59 H313         9.2100    -3.0520    12.5130 hn         1 3Z0       0.455133
     60 O19          8.3000     2.2520     4.5020 os         1 3Z0      -0.332900
     61 H8           5.5090    -0.8280    10.5460 hc         1 3Z0       0.077700
@<TRIPOS>BOND
     1    27    19 1
     2    16    19 1
     3    16    15 1
     4    19    18 1
     5    18    26 1
     6    15    17 1
     7    26    17 1
     8    26    50 1
     9    28    50 2
    10    50     8 1
    11     8     5 ar
    12     8     4 ar
    13     5    11 ar
    14     4     9 ar
    15    21    60 1
    16    11    10 ar
    17    11    60 1
    18     9    10 ar
    19     9    23 1
    20    10    24 1
    21    23    14 2
    22    20    52 1
    23    52    25 1
    24    24    14 1
    25    24    51 1
    26    14    12 1
    27    25    12 1
    28    25    13 1
    29    12     3 2
    30    13    22 ar
    31    13     7 ar
    32    22     6 ar
    33     3     7 1
    34     7     2 ar
    35     6     1 ar
    36     2     1 ar
    37     1    29 1
    38     2    30 1
    39     3    31 1
    40     4    32 1
    41     5    33 1
    42     6    34 1
    43    15    53 1
    44    15    61 1
    45    16    35 1
    46    16    36 1
    47    17    37 1
    48    17    38 1
    49    18    39 1
    50    18    40 1
    51    19    41 1
    52    20    42 1
    53    20    43 1
    54    20    44 1
    55    51    54 1
    56    51    55 1
    57    51    56 1
    58    21    45 1
    59    21    46 1
    60    21    47 1
    61    52    57 1
    62    52    58 1
    63    27    48 1
    64    27    49 1
    65    59    27 1
@<TRIPOS>SUBSTRUCTURE
     1 3Z0         1 TEMP              0 ****  ****    0 ROOT
