@<TRIPOS>MOLECULE
3Z0
   61    65     1     0     0
SMALL
bcc


@<TRIPOS>ATOM
      1 C8           0.0000     0.0000     0.0000 ca         1 3Z0      -0.248300
      2 C7           1.3810     0.0000     0.0000 ca         1 3Z0      -0.005000
      3 C5           3.4420     0.0000     1.6380 cc         1 3Z0      -0.125200
      4 C15          6.9050    -1.2140     6.3250 ca         1 3Z0      -0.082000
      5 C17          8.5890     0.5090     6.0850 ca         1 3Z0      -0.189000
      6 C9          -0.6820     0.0060     1.2080 ca         1 3Z0       0.430200
      7 C6           2.0390     0.0000     1.2350 ca         1 3Z0      -0.228100
      8 C16          8.1220    -0.6570     6.7060 ca         1 3Z0      -0.131600
      9 C14          6.1490    -0.6060     5.3200 ca         1 3Z0       0.092400
     10 C21          6.6230     0.5670     4.7070 ca         1 3Z0      -0.274200
     11 C18          7.8420     1.1200     5.0990 ca         1 3Z0       0.194100
     12 C4           3.4600    -0.0080     2.9970 cd         1 3Z0      -0.272700
     13 C11          1.2800    -0.0000     2.4240 ca         1 3Z0       0.255800
     14 C12          4.6730    -0.0100     3.8320 cd         1 3Z0       0.334100
     15 C28          6.5770    -0.8260    10.3630 c3         1 3Z0      -0.025400
     16 C29          7.2960    -1.5020    11.5340 c3         1 3Z0      -0.031400
     17 C27          6.8750    -1.5970     9.0730 c3         1 3Z0       0.001000
     18 C32          9.1290    -2.2540    10.0120 c3         1 3Z0       0.056000
     19 C30          8.8070    -1.4760    11.2920 c3         1 3Z0      -0.110500
     20 C1           1.5500     1.4440     5.3480 c3         1 3Z0      -0.013100
     21 C20          9.5650     2.7520     4.9410 c3         1 3Z0       0.240700
     22 N10         -0.0450     0.0060     2.3600 nb         1 3Z0      -0.580000
     23 N13          4.9590    -0.9080     4.7460 nc         1 3Z0      -0.525100
     24 N22          5.6740     0.9240     3.7700 na         1 3Z0       0.356700
     25 N3           2.1660    -0.0010     3.4740 na         1 3Z0       0.332900
     26 N26          8.3310    -1.7010     8.9090 n          1 3Z0      -0.160800
     27 N31          9.4970    -2.0970    12.4300 nz         1 3Z0       0.085400
     28 O25         10.1190    -1.4590     7.6130 o          1 3Z0      -0.622100
     29 H1          -0.5460     0.0000    -0.9360 ha         1 3Z0       0.119000
     30 H2           1.9390    -0.0040    -0.9290 ha         1 3Z0       0.109000
     31 H3           4.2900     0.1870     0.9910 ha         1 3Z0       0.131000
     32 H4           6.5460    -2.1160     6.8070 ha         1 3Z0       0.121000
     33 H5           9.5380     0.9370     6.3860 ha         1 3Z0       0.141000
     34 H6          -1.7650     0.0060     1.2030 h4         1 3Z0      -0.018900
     35 H9           7.0690    -0.9710    12.4500 hc         1 3Z0       0.034200
     36 H10          6.9620    -2.5300    11.6150 hc         1 3Z0       0.034200
     37 H11          6.4520    -1.0670     8.2290 h1         1 3Z0       0.065200
     38 H12          6.4460    -2.5900     9.1370 h1         1 3Z0       0.065200
     39 H13          8.8790    -3.2990    10.1510 h1         1 3Z0       0.048700
     40 H14         10.1830    -2.1530     9.7820 h1         1 3Z0       0.048700
     41 H15          9.1350    -0.4490    11.1810 hx         1 3Z0       0.100700
     42 H16          1.9190     2.1200     4.5870 hc         1 3Z0       0.011700
     43 H17          0.4880     1.6040     5.4890 hc         1 3Z0       0.011700
     44 H18          2.0700     1.6300     6.2800 hc         1 3Z0       0.011700
     45 H22          9.6320     2.5510     6.0030 h1         1 3Z0       0.006033
     46 H23          9.6160     3.8180     4.7590 h1         1 3Z0       0.006033
     47 H24         10.3620     2.2430     4.4130 h1         1 3Z0       0.006033
     48 H27          9.2720    -1.5990    13.2690 hn         1 3Z0       0.223800
     49 H28         10.4860    -2.0650    12.2790 hn         1 3Z0       0.223800
     50 C24          8.9240    -1.2970     7.7680 c          1 3Z0       0.631700
     51 C23          5.7270     2.0840     2.8780 c3         1 3Z0      -0.021400
     52 C2           1.7910     0.0040     4.8890 c3         1 3Z0      -0.062700
     53 H7           6.9310     0.1930    10.2640 hc         1 3Z0       0.043200
     54 H19          5.9890     2.9670     3.4480 h1         1 3Z0       0.036033
     55 H20          6.4720     1.9160     2.1100 h1         1 3Z0       0.036033
     56 H21          4.7580     2.2280     2.4150 h1         1 3Z0       0.036033
     57 H25          0.8890    -0.5770     5.0350 h1         1 3Z0       0.047200
     58 H26          2.5970    -0.4290     5.4700 h1         1 3Z0       0.047200
     59 H313         9.2100    -3.0520    12.5130 hn         1 3Z0       0.223800
     60 O19          8.3000     2.2520     4.5020 os         1 3Z0      -0.316900
     61 H8           5.5090    -0.8280    10.5460 hc         1 3Z0       0.043200
@<TRIPOS>BOND
     1     1     2 ar  
     2     1     6 ar  
     3     1    29 1   
     4     2     7 ar  
     5     2    30 1   
     6     3     7 1   
     7     3    12 2   
     8     3    31 1   
     9     4     8 ar  
    10     4     9 ar  
    11     4    32 1   
    12     5     8 ar  
    13     5    11 ar  
    14     5    33 1   
    15     6    22 ar  
    16     6    34 1   
    17     7    13 ar  
    18     8    50 1   
    19     9    10 ar  
    20     9    23 1   
    21    10    11 ar  
    22    10    24 1   
    23    11    60 1   
    24    12    14 1   
    25    12    25 1   
    26    13    22 ar  
    27    13    25 1   
    28    14    23 2   
    29    14    24 1   
    30    15    16 1   
    31    15    17 1   
    32    15    53 1   
    33    15    61 1   
    34    16    19 1   
    35    16    35 1   
    36    16    36 1   
    37    17    26 1   
    38    17    37 1   
    39    17    38 1   
    40    18    19 1   
    41    18    26 1   
    42    18    39 1   
    43    18    40 1   
    44    19    27 1   
    45    19    41 1   
    46    20    42 1   
    47    20    43 1   
    48    20    44 1   
    49    20    52 1   
    50    21    45 1   
    51    21    46 1   
    52    21    47 1   
    53    21    60 1   
    54    24    51 1   
    55    25    52 1   
    56    26    50 1   
    57    27    48 1   
    58    27    49 1   
    59    27    59 1   
    60    28    50 2   
    61    51    54 1   
    62    51    55 1   
    63    51    56 1   
    64    52    57 1   
    65    52    58 1   
@<TRIPOS>SUBSTRUCTURE
     1 3Z0         1 TEMP              0 ****  ****    0 ROOT
