@<TRIPOS>MOLECULE
molecule
   57    60     1     0     0
SMALL
bcc


@<TRIPOS>ATOM
      1 C19          0.0000     0.0000     0.0000 c3         1 3Z1       0.236100
      2 N18          1.4650     0.0000     0.0000 nu         1 3Z1      -0.898900
      3 C16          2.1570     0.0000     1.1970 ca         1 3Z1       0.945900
      4 N17          3.4750     0.0050     1.1660 nb         1 3Z1      -0.805000
      5 N15          1.4650    -0.0000     2.3350 nb         1 3Z1      -0.786000
      6 C14          2.0660    -0.0010     3.5070 ca         1 3Z1       0.524200
      7 C13          3.4730     0.0010     3.5400 ca         1 3Z1      -0.345600
      8 C9           4.1850    -0.0010     4.7460 ca         1 3Z1      -0.075000
      9 C12          4.1770     0.0060     2.3070 ca         1 3Z1       0.496600
     10 C10          5.5810     0.0110     2.3100 ca         1 3Z1      -0.196300
     11 C11          6.2560     0.0110     3.4910 ca         1 3Z1      -0.080000
     12 C8           5.5690     0.0000     4.7160 cp         1 3Z1      -0.061000
     13 C1           6.3320     0.0010     5.9860 cp         1 3Z1      -0.149000
     14 C2           6.2510     1.0960     6.8540 ca         1 3Z1       0.287600
     15 N20          5.4550     2.1860     6.5310 nv         1 3Z1      -0.898200
     16 C6           7.1290    -1.0900     6.3230 ca         1 3Z1       0.012700
     17 C7           7.2120    -2.2720     5.3920 c3         1 3Z1      -0.054800
     18 C5           7.8420    -1.0940     7.5070 ca         1 3Z1      -0.204000
     19 C4           7.7750    -0.0200     8.3680 ca         1 3Z1      -0.044000
     20 C3           6.9770     1.0840     8.0530 ca         1 3Z1      -0.263600
     21 C21          6.9010     2.2310     8.9770 c          1 3Z1       0.703700
     22 O22          6.1300     3.1440     8.7510 o          1 3Z1      -0.636100
     23 N23          7.6860     2.2680    10.0720 ns         1 3Z1      -0.469100
     24 C24          7.5490     3.3100    10.9980 ca         1 3Z1       0.013600
     25 C29          7.7290     3.0640    12.3520 ca         1 3Z1      -0.086000
     26 C25          7.2400     4.5910    10.5600 ca         1 3Z1      -0.060000
     27 C26          7.1050     5.6180    11.4730 ca         1 3Z1      -0.212000
     28 C27          7.2790     5.3700    12.8270 ca         1 3Z1       0.173100
     29 O30          7.1460     6.3820    13.7250 os         1 3Z1      -0.318900
     30 C31          6.8260     7.6740    13.2050 c3         1 3Z1       0.129700
     31 C28          7.5940     4.0920    13.2640 ca         1 3Z1      -0.199300
     32 C32          7.7900     3.8250    14.7350 c3         1 3Z1       0.687200
     33 F34          8.0970     2.4740    14.9270 f          1 3Z1      -0.222633
     34 F35          8.8390     4.6150    15.2170 f          1 3Z1      -0.222633
     35 F33          6.6140     4.1390    15.4250 f          1 3Z1      -0.222633
     36 H1          -0.3610    -0.8850     0.5100 h1         1 3Z1       0.041033
     37 H2          -0.3610     0.8840     0.5110 h1         1 3Z1       0.041033
     38 H3          -0.3610     0.0000    -1.0210 h1         1 3Z1       0.041033
     39 H4           1.9650    -0.0010    -0.8670 hn         1 3Z1       0.458800
     40 H5           1.4900    -0.0010     4.4250 h4         1 3Z1       0.033100
     41 H6           3.6590    -0.0090     5.6920 ha         1 3Z1       0.142000
     42 H7           6.1260     0.0200     1.3740 ha         1 3Z1       0.152000
     43 H8           7.3390     0.0120     3.4860 ha         1 3Z1       0.140000
     44 H9           5.4030     2.9690     7.1530 hn         1 3Z1       0.453800
     45 H10          4.9570     2.2020     5.6630 hn         1 3Z1       0.453800
     46 H11          6.2150    -2.5590     5.0820 hc         1 3Z1       0.050033
     47 H12          7.6840    -3.1020     5.9040 hc         1 3Z1       0.050033
     48 H13          7.7980    -2.0050     4.5210 hc         1 3Z1       0.050033
     49 H14          8.4610    -1.9470     7.7590 ha         1 3Z1       0.135000
     50 H15          8.3380    -0.0330     9.2940 ha         1 3Z1       0.121000
     51 H16          8.3370     1.5280    10.2450 hn         1 3Z1       0.330500
     52 H17          7.9750     2.0650    12.6940 ha         1 3Z1       0.153000
     53 H18          7.1030     4.7840     9.5030 ha         1 3Z1       0.171000
     54 H19          6.8630     6.6170    11.1320 ha         1 3Z1       0.147000
     55 H20          6.7490     8.3830    14.0210 h1         1 3Z1       0.045367
     56 H21          5.8810     7.6260    12.6780 h1         1 3Z1       0.045367
     57 H22          7.6050     7.9910    12.5220 h1         1 3Z1       0.045367
@<TRIPOS>BOND
     1     1     2 1   
     2     2     3 1   
     3     3     5 ar  
     4     3     4 ar  
     5     5     6 ar  
     6     4     9 ar  
     7     6     7 ar  
     8     9     7 ar  
     9     9    10 ar  
    10     7     8 ar  
    11    10    11 ar  
    12     8    12 ar  
    13    11    12 ar  
    14    12    13 1   
    15    17    16 1   
    16    13    16 ar  
    17    13    14 ar  
    18    16    18 ar  
    19    15    14 1   
    20    14    20 ar  
    21    18    19 ar  
    22    20    19 ar  
    23    20    21 1   
    24    22    21 2   
    25    21    23 1   
    26    23    24 1   
    27    24    25 ar  
    28    24    26 ar  
    29    25    31 ar  
    30    34    32 1   
    31    26    27 ar  
    32    31    32 1   
    33    31    28 ar  
    34    32    33 1   
    35    32    35 1   
    36    27    28 ar  
    37    28    29 1   
    38    29    30 1   
    39     1    36 1   
    40     1    37 1   
    41     1    38 1   
    42     2    39 1   
    43     6    40 1   
    44     8    41 1   
    45    10    42 1   
    46    11    43 1   
    47    15    44 1   
    48    15    45 1   
    49    17    46 1   
    50    17    47 1   
    51    17    48 1   
    52    18    49 1   
    53    19    50 1   
    54    23    51 1   
    55    25    52 1   
    56    26    53 1   
    57    27    54 1   
    58    30    55 1   
    59    30    56 1   
    60    30    57 1   
@<TRIPOS>SUBSTRUCTURE
     1 3Z1         1 TEMP              0 ****  ****    0 ROOT
