@<TRIPOS>MOLECULE
molecule
   69    74     1     0     0
SMALL
bcc


@<TRIPOS>ATOM
      1 N1           0.0000     0.0000     0.0000 nb         1 3Z2      -0.713000
      2 C4           1.3380     0.0000     0.0000 ca         1 3Z2       0.456600
      3 C5           2.0440     0.0000     1.2280 ca         1 3Z2      -0.164300
      4 C6           3.4470    -0.0000     1.2260 ca         1 3Z2      -0.176000
      5 C7          -0.6890    -0.0010     1.1180 ca         1 3Z2       0.463200
      6 C8          -0.0680    -0.0010     2.3600 ca         1 3Z2      -0.355300
      7 C13          0.9270     0.9900     5.5550 ca         1 3Z2      -0.069000
      8 C15         -0.3310    -0.4440     6.9980 ca         1 3Z2       0.565200
      9 C17         -1.6750    -1.8250     8.3870 c          1 3Z2       0.715300
     10 C20         -2.9440    -0.9600    10.5150 c          1 3Z2       0.719700
     11 C22         -4.3790    -0.9090    12.4910 ca         1 3Z2       0.052600
     12 C24         -6.3310    -0.3980    13.7870 ca         1 3Z2      -0.116000
     13 C26         -4.1930     0.4550    14.4540 ca         1 3Z2      -0.116000
     14 C28         -3.1500    -4.4640     9.2340 ca         1 3Z2      -0.035800
     15 C2           3.4240     0.0030    -1.1780 ca         1 3Z2       0.153100
     16 C3           2.0590     0.0010    -1.2040 ca         1 3Z2      -0.264300
     17 C1           4.1210     0.0010     0.0390 ca         1 3Z2       0.120100
     18 O1           5.4800     0.0010     0.0370 os         1 3Z2      -0.313900
     19 C11          6.1310     0.0020     1.3090 c3         1 3Z2       0.125700
     20 C9           1.3130    -0.0020     2.4370 ca         1 3Z2       0.179100
     21 O3           1.9450    -0.0020     3.6360 os         1 3Z2      -0.233200
     22 C12          1.1870    -0.1210     4.7580 ca         1 3Z2      -0.078200
     23 C14          0.1550     0.8210     6.6910 ca         1 3Z2      -0.289300
     24 C16          0.6640    -1.3520     5.1230 ca         1 3Z2       0.445200
     25 N2          -0.0720    -1.4770     6.2100 nb         1 3Z2      -0.677000
     26 O4          -1.4420    -2.7690     7.6560 o          1 3Z2      -0.562100
     27 C18         -2.5680    -1.9910     9.5370 cc         1 3Z2      -0.398400
     28 N5          -3.7840    -1.5420    11.3950 n          1 3Z2      -0.204400
     29 C23         -5.7460    -1.0250    12.7030 ca         1 3Z2      -0.126000
     30 C25         -5.5560     0.3430    14.6590 ca         1 3Z2      -0.124000
     31 C27         -3.6020    -0.1680    13.3730 ca         1 3Z2      -0.126000
     32 N4          -3.9630    -2.8810    11.0340 na         1 3Z2      -0.430400
     33 C19         -3.2290    -3.1580     9.9190 cd         1 3Z2       0.273800
     34 C29         -2.8620    -5.6350     9.9470 ca         1 3Z2      -0.205300
     35 C30         -2.7990    -6.8330     9.2660 ca         1 3Z2       0.418700
     36 N6          -3.0040    -6.8860     7.9650 nb         1 3Z2      -0.675000
     37 C31         -3.2780    -5.8090     7.2550 ca         1 3Z2       0.418700
     38 C32         -3.3660    -4.5680     7.8550 ca         1 3Z2      -0.205300
     39 H1          -1.2330     0.1280     8.7870 hn         1 3Z2       0.358500
     40 H2           3.9930    -0.0010     2.1620 ha         1 3Z2       0.157000
     41 H3          -1.7710    -0.0010     1.0690 h4         1 3Z2       0.022100
     42 H4          -0.6640    -0.0020     3.2650 ha         1 3Z2       0.149000
     43 H5           2.7410     0.8950    -3.5950 h1         1 3Z2       0.044367
     44 H6           4.0250    -0.0130    -4.4050 h1         1 3Z2       0.044367
     45 H7           2.7170    -0.8740    -3.5810 h1         1 3Z2       0.044367
     46 H8           1.3190     1.9650     5.2920 ha         1 3Z2       0.152000
     47 H9          -4.3480    -4.8220    11.7130 h1         1 3Z2       0.063033
     48 H10         -4.9130    -3.5300    12.7810 h1         1 3Z2       0.063033
     49 H11         -5.7830    -3.8820    11.2820 h1         1 3Z2       0.063033
     50 H12         -7.3980    -0.4860    13.9510 ha         1 3Z2       0.139000
     51 H13         -3.5880     1.0340    15.1420 ha         1 3Z2       0.139000
     52 H14          1.5350     0.0770    -2.1500 ha         1 3Z2       0.161000
     53 H15          5.8410     0.8850     1.8630 h1         1 3Z2       0.042700
     54 H16          5.8430    -0.8840     1.8630 h1         1 3Z2       0.042700
     55 H17          7.2050     0.0030     1.1640 h1         1 3Z2       0.042700
     56 H18         -0.0670     1.6640     7.3340 ha         1 3Z2       0.147000
     57 H19          0.8580    -2.2210     4.5060 h4         1 3Z2       0.040100
     58 H20         -6.3540    -1.6060    12.0200 ha         1 3Z2       0.146000
     59 H21         -6.0170     0.8340    15.5080 ha         1 3Z2       0.137000
     60 H22         -2.5340    -0.0800    13.2130 ha         1 3Z2       0.146000
     61 H23         -2.6920    -5.6000    11.0170 ha         1 3Z2       0.150000
     62 H24         -2.5770    -7.7450     9.8080 h4         1 3Z2       0.029600
     63 H25         -3.4420    -5.8990     6.1880 h4         1 3Z2       0.029600
     64 H26         -3.5920    -3.6870     7.2650 ha         1 3Z2       0.150000
     65 O2           4.1170     0.0030    -2.3470 os         1 3Z2      -0.311900
     66 N3          -1.1100    -0.6260     8.1400 ns         1 3Z2      -0.542400
     67 C10          3.3530     0.0030    -3.5550 c3         1 3Z2       0.124700
     68 O5          -2.5720     0.1980    10.5250 o          1 3Z2      -0.646500
     69 C21         -4.8070    -3.8410    11.7490 c3         1 3Z2       0.226100
@<TRIPOS>BOND
     1    30    13 ar  
     2    30    12 ar  
     3    13    31 ar  
     4    69    32 1   
     5    12    29 ar  
     6    31    11 ar  
     7    29    11 ar  
     8    11    28 1   
     9    37    38 ar  
    10    37    36 ar  
    11    32    28 1   
    12    32    33 1   
    13    38    14 ar  
    14    28    10 1   
    15    36    35 ar  
    16    14    33 1   
    17    14    34 ar  
    18    33    27 2   
    19    35    34 ar  
    20    10    27 1   
    21    10    68 2   
    22    27     9 1   
    23     9    26 2   
    24     9    66 1   
    25    66     8 1   
    26     8    23 ar  
    27     8    25 ar  
    28    23     7 ar  
    29    25    24 ar  
    30    24    22 ar  
    31     7    22 ar  
    32    22    21 1   
    33    21    20 1   
    34     6    20 ar  
    35     6     5 ar  
    36    20     3 ar  
    37     5     1 ar  
    38     3     4 ar  
    39     3     2 ar  
    40     4    17 ar  
    41    19    18 1   
    42     1     2 ar  
    43     2    16 ar  
    44    17    18 1   
    45    17    15 ar  
    46    16    15 ar  
    47    15    65 1   
    48    65    67 1   
    49    66    39 1   
    50     4    40 1   
    51     5    41 1   
    52     6    42 1   
    53    67    43 1   
    54    67    44 1   
    55    67    45 1   
    56     7    46 1   
    57    69    47 1   
    58    69    48 1   
    59    69    49 1   
    60    12    50 1   
    61    13    51 1   
    62    16    52 1   
    63    19    53 1   
    64    19    54 1   
    65    19    55 1   
    66    23    56 1   
    67    24    57 1   
    68    29    58 1   
    69    30    59 1   
    70    31    60 1   
    71    34    61 1   
    72    35    62 1   
    73    37    63 1   
    74    38    64 1   
@<TRIPOS>SUBSTRUCTURE
     1 3Z2         1 TEMP              0 ****  ****    0 ROOT
