@<TRIPOS>MOLECULE
3Z2
   69    74     1     0     0
SMALL
bcc


@<TRIPOS>ATOM
      1 N1           0.0000     0.0000     0.0000 nb         1 3Z2      -0.611000
      2 C4           1.3380     0.0000     0.0000 ca         1 3Z2       0.418600
      3 C5           2.0440     0.0000     1.2280 ca         1 3Z2      -0.162300
      4 C6           3.4470    -0.0000     1.2260 ca         1 3Z2      -0.168000
      5 C7          -0.6890    -0.0010     1.1180 ca         1 3Z2       0.451200
      6 C8          -0.0680    -0.0010     2.3600 ca         1 3Z2      -0.342300
      7 C13          0.9270     0.9900     5.5550 ca         1 3Z2      -0.050000
      8 C15         -0.3310    -0.4440     6.9980 ca         1 3Z2       0.370200
      9 C17         -1.6750    -1.8250     8.3870 c          1 3Z2       0.633300
     10 C20         -2.9440    -0.9600    10.5150 c          1 3Z2       0.645700
     11 C22         -4.3790    -0.9090    12.4910 ca         1 3Z2      -0.085400
     12 C24         -6.3310    -0.3980    13.7870 ca         1 3Z2      -0.085000
     13 C26         -4.1930     0.4550    14.4540 ca         1 3Z2      -0.085000
     14 C28         -3.1500    -4.4640     9.2340 ca         1 3Z2      -0.029800
     15 C2           3.4240     0.0030    -1.1780 ca         1 3Z2       0.155100
     16 C3           2.0590     0.0010    -1.2040 ca         1 3Z2      -0.258300
     17 C1           4.1210     0.0010     0.0390 ca         1 3Z2       0.126100
     18 O1           5.4800     0.0010     0.0370 os         1 3Z2      -0.293900
     19 C11          6.1310     0.0020     1.3090 c3         1 3Z2       0.239700
     20 C9           1.3130    -0.0020     2.4370 ca         1 3Z2       0.186100
     21 O3           1.9450    -0.0020     3.6360 os         1 3Z2      -0.202200
     22 C12          1.1870    -0.1210     4.7580 ca         1 3Z2      -0.069200
     23 C14          0.1550     0.8210     6.6910 ca         1 3Z2      -0.260300
     24 C16          0.6640    -1.3520     5.1230 ca         1 3Z2       0.415200
     25 N2          -0.0720    -1.4770     6.2100 nb         1 3Z2      -0.552000
     26 O4          -1.4420    -2.7690     7.6560 o          1 3Z2      -0.611100
     27 C18         -2.5680    -1.9910     9.5370 cc         1 3Z2      -0.430400
     28 N5          -3.7840    -1.5420    11.3950 n          1 3Z2       0.073600
     29 C23         -5.7460    -1.0250    12.7030 ca         1 3Z2      -0.097500
     30 C25         -5.5560     0.3430    14.6590 ca         1 3Z2      -0.091000
     31 C27         -3.6020    -0.1680    13.3730 ca         1 3Z2      -0.097500
     32 N4          -3.9630    -2.8810    11.0340 na         1 3Z2      -0.158400
     33 C19         -3.2290    -3.1580     9.9190 cd         1 3Z2       0.138800
     34 C29         -2.8620    -5.6350     9.9470 ca         1 3Z2      -0.179800
     35 C30         -2.7990    -6.8330     9.2660 ca         1 3Z2       0.402700
     36 N6          -3.0040    -6.8860     7.9650 nb         1 3Z2      -0.568000
     37 C31         -3.2780    -5.8090     7.2550 ca         1 3Z2       0.402700
     38 C32         -3.3660    -4.5680     7.8550 ca         1 3Z2      -0.179800
     39 H1          -1.2330     0.1280     8.7870 hn         1 3Z2       0.207500
     40 H2           3.9930    -0.0010     2.1620 ha         1 3Z2       0.138000
     41 H3          -1.7710    -0.0010     1.0690 h4         1 3Z2      -0.024900
     42 H4          -0.6640    -0.0020     3.2650 ha         1 3Z2       0.133000
     43 H5           2.7410     0.8950    -3.5950 h1         1 3Z2      -0.000300
     44 H6           4.0250    -0.0130    -4.4050 h1         1 3Z2      -0.000300
     45 H7           2.7170    -0.8740    -3.5810 h1         1 3Z2      -0.000300
     46 H8           1.3190     1.9650     5.2920 ha         1 3Z2       0.119000
     47 H9          -4.3480    -4.8220    11.7130 h1         1 3Z2       0.029367
     48 H10         -4.9130    -3.5300    12.7810 h1         1 3Z2       0.029367
     49 H11         -5.7830    -3.8820    11.2820 h1         1 3Z2       0.029367
     50 H12         -7.3980    -0.4860    13.9510 ha         1 3Z2       0.109000
     51 H13         -3.5880     1.0340    15.1420 ha         1 3Z2       0.109000
     52 H14          1.5350     0.0770    -2.1500 ha         1 3Z2       0.140000
     53 H15          5.8410     0.8850     1.8630 h1         1 3Z2      -0.001300
     54 H16          5.8430    -0.8840     1.8630 h1         1 3Z2      -0.001300
     55 H17          7.2050     0.0030     1.1640 h1         1 3Z2      -0.001300
     56 H18         -0.0670     1.6640     7.3340 ha         1 3Z2       0.123000
     57 H19          0.8580    -2.2210     4.5060 h4         1 3Z2      -0.006900
     58 H20         -6.3540    -1.6060    12.0200 ha         1 3Z2       0.118000
     59 H21         -6.0170     0.8340    15.5080 ha         1 3Z2       0.107000
     60 H22         -2.5340    -0.0800    13.2130 ha         1 3Z2       0.118000
     61 H23         -2.6920    -5.6000    11.0170 ha         1 3Z2       0.123000
     62 H24         -2.5770    -7.7450     9.8080 h4         1 3Z2      -0.017400
     63 H25         -3.4420    -5.8990     6.1880 h4         1 3Z2      -0.017400
     64 H26         -3.5920    -3.6870     7.2650 ha         1 3Z2       0.123000
     65 O2           4.1170     0.0030    -2.3470 os         1 3Z2      -0.294900
     66 N3          -1.1100    -0.6260     8.1400 ns         1 3Z2      -0.115400
     67 C10          3.3530     0.0030    -3.5550 c3         1 3Z2       0.239700
     68 O5          -2.5720     0.1980    10.5250 o          1 3Z2      -0.691500
     69 C21         -4.8070    -3.8410    11.7490 c3         1 3Z2       0.189100
@<TRIPOS>BOND
     1     1     2 ar  
     2     1     5 ar  
     3     2     3 ar  
     4     2    16 ar  
     5     3     4 ar  
     6     3    20 ar  
     7     4    17 ar  
     8     4    40 1   
     9     5     6 ar  
    10     5    41 1   
    11     6    20 ar  
    12     6    42 1   
    13     7    22 ar  
    14     7    23 ar  
    15     7    46 1   
    16     8    23 ar  
    17     8    25 ar  
    18     8    66 1   
    19     9    26 2   
    20     9    27 1   
    21     9    66 1   
    22    10    27 1   
    23    10    28 1   
    24    10    68 2   
    25    11    28 1   
    26    11    29 ar  
    27    11    31 ar  
    28    12    29 ar  
    29    12    30 ar  
    30    12    50 1   
    31    13    30 ar  
    32    13    31 ar  
    33    13    51 1   
    34    14    33 1   
    35    14    34 ar  
    36    14    38 ar  
    37    15    16 ar  
    38    15    17 ar  
    39    15    65 1   
    40    16    52 1   
    41    17    18 1   
    42    18    19 1   
    43    19    53 1   
    44    19    54 1   
    45    19    55 1   
    46    20    21 1   
    47    21    22 1   
    48    22    24 ar  
    49    23    56 1   
    50    24    25 ar  
    51    24    57 1   
    52    27    33 2   
    53    28    32 1   
    54    29    58 1   
    55    30    59 1   
    56    31    60 1   
    57    32    33 1   
    58    32    69 1   
    59    34    35 ar  
    60    34    61 1   
    61    35    36 ar  
    62    35    62 1   
    63    36    37 ar  
    64    37    38 ar  
    65    37    63 1   
    66    38    64 1   
    67    39    66 1   
    68    43    67 1   
    69    44    67 1   
    70    45    67 1   
    71    47    69 1   
    72    48    69 1   
    73    49    69 1   
    74    65    67 1   
@<TRIPOS>SUBSTRUCTURE
     1 3Z2         1 TEMP              0 ****  ****    0 ROOT
