@<TRIPOS>MOLECULE
molecule
   69    74     1     0     0
SMALL
bcc


@<TRIPOS>ATOM
      1 C11          0.0000     0.0000     0.0000 ca         1 3Z3      -0.081000
      2 C12          1.3790     0.0000     0.0000 ca         1 3Z3      -0.131500
      3 C13          2.0750     0.0000     1.1960 ca         1 3Z3      -0.105000
      4 C14          1.3940    -0.0000     2.4010 ca         1 3Z3      -0.131500
      5 C15          0.0150     0.0000     2.4170 ca         1 3Z3      -0.081000
      6 C5          -0.6950     0.0070     1.2130 ca         1 3Z3      -0.069800
      7 C2          -2.1690     0.0070     1.2230 cc         1 3Z3       0.268800
      8 N1          -2.9750    -0.8580     0.5440 na         1 3Z3      -0.431400
      9 C24         -2.5090    -1.9470    -0.3170 c3         1 3Z3       0.226100
     10 N2          -4.3150    -0.5480     0.7970 n          1 3Z3      -0.215400
     11 C4          -5.4190    -1.2260     0.2690 ca         1 3Z3       0.058600
     12 C6          -6.4420    -0.5180    -0.3470 ca         1 3Z3      -0.128000
     13 C7          -7.5300    -1.1900    -0.8680 ca         1 3Z3      -0.116500
     14 C8          -7.6020    -2.5680    -0.7740 ca         1 3Z3      -0.128000
     15 C9          -6.5860    -3.2770    -0.1610 ca         1 3Z3      -0.116500
     16 C10         -5.4910    -2.6100     0.3560 ca         1 3Z3      -0.128000
     17 C3          -4.3710     0.5080     1.6320 c          1 3Z3       0.718700
     18 O1          -5.3800     1.0410     2.0590 o          1 3Z3      -0.611500
     19 C1          -2.9870     0.8920     1.9330 cd         1 3Z3      -0.418400
     20 C16         -2.5480     1.9880     2.7990 c          1 3Z3       0.641900
     21 O2          -1.3650     2.2690     2.8750 o          1 3Z3      -0.550100
     22 C17         -3.5390     2.7530     3.5800 ca         1 3Z3      -0.223600
     23 C22         -4.1390     2.1790     4.7100 ca         1 3Z3       0.272600
     24 N3          -3.8090     0.8890     5.0970 nv         1 3Z3      -0.904200
     25 C18         -3.8790     4.0540     3.2000 ca         1 3Z3      -0.029000
     26 C19         -4.8050     4.7690     3.9300 ca         1 3Z3      -0.194000
     27 C20         -5.4060     4.2090     5.0430 ca         1 3Z3      -0.000300
     28 C33         -6.4150     5.0040     5.8300 c3         1 3Z3      -0.050800
     29 C21         -5.0730     2.9190     5.4460 cp         1 3Z3      -0.138000
     30 C23         -5.7200     2.3230     6.6380 cp         1 3Z3      -0.096000
     31 C29         -6.9120     1.5940     6.4940 ca         1 3Z3      -0.055000
     32 C28         -7.5250     1.0360     7.5710 ca         1 3Z3      -0.220300
     33 C27         -6.9700     1.1850     8.8500 ca         1 3Z3       0.514600
     34 N5          -7.5480     0.6540     9.9350 nb         1 3Z3      -0.807000
     35 C31         -7.0020     0.8160    11.1260 ca         1 3Z3       0.948900
     36 N6          -7.6270     0.2540    12.2250 nu         1 3Z3      -0.897900
     37 C32         -7.0460     0.4150    13.5590 c3         1 3Z3       0.236100
     38 N4          -5.8740     1.4980    11.3120 nb         1 3Z3      -0.790000
     39 C30         -5.2320     2.0550    10.3060 ca         1 3Z3       0.535200
     40 C26         -5.7650     1.9180     9.0110 ca         1 3Z3      -0.383600
     41 C25         -5.1420     2.4840     7.8890 ca         1 3Z3       0.182900
     42 F1          -3.9950     3.1850     8.0250 f          1 3Z3      -0.126900
     43 H1          -0.5430     0.0020    -0.9370 ha         1 3Z3       0.137500
     44 H2           1.9190    -0.0020    -0.9390 ha         1 3Z3       0.136500
     45 H3           3.1580    -0.0000     1.1890 ha         1 3Z3       0.133000
     46 H4           1.9460    -0.0030     3.3330 ha         1 3Z3       0.136500
     47 H5          -0.5160     0.0030     3.3610 ha         1 3Z3       0.137500
     48 H6          -1.6700    -1.6040    -0.9110 h1         1 3Z3       0.060367
     49 H7          -2.1990    -2.7850     0.2950 h1         1 3Z3       0.060367
     50 H8          -3.3130    -2.2580    -0.9740 h1         1 3Z3       0.060367
     51 H9          -6.3850     0.5610    -0.4210 ha         1 3Z3       0.145500
     52 H10         -8.3280    -0.6380    -1.3490 ha         1 3Z3       0.137500
     53 H11         -8.4580    -3.0930    -1.1800 ha         1 3Z3       0.134000
     54 H12         -6.6440    -4.3560    -0.0910 ha         1 3Z3       0.137500
     55 H13         -4.6950    -3.1660     0.8360 ha         1 3Z3       0.145500
     56 H14         -3.0970     0.3850     4.6060 hn         1 3Z3       0.432300
     57 H15         -4.2660     0.4700     5.8830 hn         1 3Z3       0.432300
     58 H16         -3.4140     4.5020     2.3300 ha         1 3Z3       0.133000
     59 H17         -5.0630     5.7780     3.6290 ha         1 3Z3       0.130000
     60 H18         -6.0250     5.2040     6.8200 hc         1 3Z3       0.044700
     61 H19         -7.3360     4.4380     5.9120 hc         1 3Z3       0.044700
     62 H20         -6.6120     5.9410     5.3230 hc         1 3Z3       0.044700
     63 H21         -7.3480     1.4750     5.5100 ha         1 3Z3       0.155000
     64 H22         -8.4440     0.4770     7.4410 ha         1 3Z3       0.153000
     65 H23         -8.4790    -0.2570    12.1080 hn         1 3Z3       0.458800
     66 H24         -6.0510    -0.0150    13.5740 h1         1 3Z3       0.041033
     67 H25         -7.6680    -0.0900    14.2880 h1         1 3Z3       0.041033
     68 H26         -6.9870     1.4690    13.8030 h1         1 3Z3       0.041033
     69 H27         -4.3150     2.6070    10.4710 h4         1 3Z3       0.041100
@<TRIPOS>BOND
     1    37    36 1   
     2    36    35 1   
     3    35    38 ar  
     4    35    34 ar  
     5    38    39 ar  
     6    34    33 ar  
     7    39    40 ar  
     8    33    40 ar  
     9    33    32 ar  
    10    40    41 ar  
    11    32    31 ar  
    12    41    42 1   
    13    41    30 ar  
    14    31    30 ar  
    15    30    29 1   
    16    28    27 1   
    17    29    27 ar  
    18    29    23 ar  
    19    27    26 ar  
    20    24    23 1   
    21    23    22 ar  
    22    26    25 ar  
    23    22    25 ar  
    24    22    20 1   
    25    21    20 2   
    26    20    19 1   
    27    18    17 2   
    28    19    17 1   
    29    19     7 2   
    30     5     4 ar  
    31     5     6 ar  
    32     4     3 ar  
    33    17    10 1   
    34     7     6 1   
    35     7     8 1   
    36     6     1 ar  
    37     3     2 ar  
    38    10     8 1   
    39    10    11 1   
    40     1     2 ar  
    41     8     9 1   
    42    12    11 ar  
    43    12    13 ar  
    44    11    16 ar  
    45    13    14 ar  
    46    16    15 ar  
    47    14    15 ar  
    48     1    43 1   
    49     2    44 1   
    50     3    45 1   
    51     4    46 1   
    52     5    47 1   
    53     9    48 1   
    54     9    49 1   
    55     9    50 1   
    56    12    51 1   
    57    13    52 1   
    58    14    53 1   
    59    15    54 1   
    60    16    55 1   
    61    24    56 1   
    62    24    57 1   
    63    25    58 1   
    64    26    59 1   
    65    28    60 1   
    66    28    61 1   
    67    28    62 1   
    68    31    63 1   
    69    32    64 1   
    70    36    65 1   
    71    37    66 1   
    72    37    67 1   
    73    37    68 1   
    74    39    69 1   
@<TRIPOS>SUBSTRUCTURE
     1 3Z3         1 TEMP              0 ****  ****    0 ROOT
