@<TRIPOS>MOLECULE
3Z3
   69    74     1     0     0
SMALL
bcc


@<TRIPOS>ATOM
      1 C11          0.0000     0.0000     0.0000 ca         1 3Z3      -0.061500
      2 C12          1.3790     0.0000     0.0000 ca         1 3Z3      -0.101500
      3 C13          2.0750     0.0000     1.1960 ca         1 3Z3      -0.081000
      4 C14          1.3940    -0.0000     2.4010 ca         1 3Z3      -0.101500
      5 C15          0.0150     0.0000     2.4170 ca         1 3Z3      -0.061500
      6 C5          -0.6950     0.0070     1.2130 ca         1 3Z3      -0.059800
      7 C2          -2.1690     0.0070     1.2230 cc         1 3Z3       0.135800
      8 N1          -2.9750    -0.8580     0.5440 na         1 3Z3      -0.156400
      9 C24         -2.5090    -1.9470    -0.3170 c3         1 3Z3       0.189100
     10 N2          -4.3150    -0.5480     0.7970 n          1 3Z3       0.055600
     11 C4          -5.4190    -1.2260     0.2690 ca         1 3Z3      -0.077400
     12 C6          -6.4420    -0.5180    -0.3470 ca         1 3Z3      -0.100000
     13 C7          -7.5300    -1.1900    -0.8680 ca         1 3Z3      -0.085500
     14 C8          -7.6020    -2.5680    -0.7740 ca         1 3Z3      -0.095000
     15 C9          -6.5860    -3.2770    -0.1610 ca         1 3Z3      -0.085500
     16 C10         -5.4910    -2.6100     0.3560 ca         1 3Z3      -0.100000
     17 C3          -4.3710     0.5080     1.6320 c          1 3Z3       0.644700
     18 O1          -5.3800     1.0410     2.0590 o          1 3Z3      -0.658500
     19 C1          -2.9870     0.8920     1.9330 cd         1 3Z3      -0.448400
     20 C16         -2.5480     1.9880     2.7990 c          1 3Z3       0.715900
     21 O2          -1.3650     2.2690     2.8750 o          1 3Z3      -0.589100
     22 C17         -3.5390     2.7530     3.5800 ca         1 3Z3      -0.232600
     23 C22         -4.1390     2.1790     4.7100 ca         1 3Z3       0.127600
     24 N3          -3.8090     0.8890     5.0970 nv         1 3Z3      -0.438200
     25 C18         -3.8790     4.0540     3.2000 ca         1 3Z3       0.006000
     26 C19         -4.8050     4.7690     3.9300 ca         1 3Z3      -0.177000
     27 C20         -5.4060     4.2090     5.0430 ca         1 3Z3      -0.002300
     28 C33         -6.4150     5.0040     5.8300 c3         1 3Z3       0.051200
     29 C21         -5.0730     2.9190     5.4460 cp         1 3Z3      -0.139000
     30 C23         -5.7200     2.3230     6.6380 cp         1 3Z3      -0.074000
     31 C29         -6.9120     1.5940     6.4940 ca         1 3Z3      -0.031000
     32 C28         -7.5250     1.0360     7.5710 ca         1 3Z3      -0.196300
     33 C27         -6.9700     1.1850     8.8500 ca         1 3Z3       0.474600
     34 N5          -7.5480     0.6540     9.9350 nb         1 3Z3      -0.711000
     35 C31         -7.0020     0.8160    11.1260 ca         1 3Z3       0.725900
     36 N6          -7.6270     0.2540    12.2250 nu         1 3Z3      -0.480900
     37 C32         -7.0460     0.4150    13.5590 c3         1 3Z3       0.200100
     38 N4          -5.8740     1.4980    11.3120 nb         1 3Z3      -0.682000
     39 C30         -5.2320     2.0550    10.3060 ca         1 3Z3       0.522200
     40 C26         -5.7650     1.9180     9.0110 ca         1 3Z3      -0.371600
     41 C25         -5.1420     2.4840     7.8890 ca         1 3Z3       0.160900
     42 F1          -3.9950     3.1850     8.0250 f          1 3Z3      -0.120900
     43 H1          -0.5430     0.0020    -0.9370 ha         1 3Z3       0.109000
     44 H2           1.9190    -0.0020    -0.9390 ha         1 3Z3       0.106500
     45 H3           3.1580    -0.0000     1.1890 ha         1 3Z3       0.103000
     46 H4           1.9460    -0.0030     3.3330 ha         1 3Z3       0.106500
     47 H5          -0.5160     0.0030     3.3610 ha         1 3Z3       0.109000
     48 H6          -1.6700    -1.6040    -0.9110 h1         1 3Z3       0.028367
     49 H7          -2.1990    -2.7850     0.2950 h1         1 3Z3       0.028367
     50 H8          -3.3130    -2.2580    -0.9740 h1         1 3Z3       0.028367
     51 H9          -6.3850     0.5610    -0.4210 ha         1 3Z3       0.118500
     52 H10         -8.3280    -0.6380    -1.3490 ha         1 3Z3       0.107500
     53 H11         -8.4580    -3.0930    -1.1800 ha         1 3Z3       0.106000
     54 H12         -6.6440    -4.3560    -0.0910 ha         1 3Z3       0.107500
     55 H13         -4.6950    -3.1660     0.8360 ha         1 3Z3       0.118500
     56 H14         -3.0970     0.3850     4.6060 hn         1 3Z3       0.268800
     57 H15         -4.2660     0.4700     5.8830 hn         1 3Z3       0.268800
     58 H16         -3.4140     4.5020     2.3300 ha         1 3Z3       0.099000
     59 H17         -5.0630     5.7780     3.6290 ha         1 3Z3       0.107000
     60 H18         -6.0250     5.2040     6.8200 hc         1 3Z3       0.009700
     61 H19         -7.3360     4.4380     5.9120 hc         1 3Z3       0.009700
     62 H20         -6.6120     5.9410     5.3230 hc         1 3Z3       0.009700
     63 H21         -7.3480     1.4750     5.5100 ha         1 3Z3       0.121000
     64 H22         -8.4440     0.4770     7.4410 ha         1 3Z3       0.123000
     65 H23         -8.4790    -0.2570    12.1080 hn         1 3Z3       0.299800
     66 H24         -6.0510    -0.0150    13.5740 h1         1 3Z3       0.009033
     67 H25         -7.6680    -0.0900    14.2880 h1         1 3Z3       0.009033
     68 H26         -6.9870     1.4690    13.8030 h1         1 3Z3       0.009033
     69 H27         -4.3150     2.6070    10.4710 h4         1 3Z3      -0.006900
@<TRIPOS>BOND
     1     1     2 ar  
     2     1     6 ar  
     3     1    43 1   
     4     2     3 ar  
     5     2    44 1   
     6     3     4 ar  
     7     3    45 1   
     8     4     5 ar  
     9     4    46 1   
    10     5     6 ar  
    11     5    47 1   
    12     6     7 1   
    13     7     8 1   
    14     7    19 2   
    15     8     9 1   
    16     8    10 1   
    17     9    48 1   
    18     9    49 1   
    19     9    50 1   
    20    10    11 1   
    21    10    17 1   
    22    11    12 ar  
    23    11    16 ar  
    24    12    13 ar  
    25    12    51 1   
    26    13    14 ar  
    27    13    52 1   
    28    14    15 ar  
    29    14    53 1   
    30    15    16 ar  
    31    15    54 1   
    32    16    55 1   
    33    17    18 2   
    34    17    19 1   
    35    19    20 1   
    36    20    21 2   
    37    20    22 1   
    38    22    23 ar  
    39    22    25 ar  
    40    23    24 1   
    41    23    29 ar  
    42    24    56 1   
    43    24    57 1   
    44    25    26 ar  
    45    25    58 1   
    46    26    27 ar  
    47    26    59 1   
    48    27    28 1   
    49    27    29 ar  
    50    28    60 1   
    51    28    61 1   
    52    28    62 1   
    53    29    30 1   
    54    30    31 ar  
    55    30    41 ar  
    56    31    32 ar  
    57    31    63 1   
    58    32    33 ar  
    59    32    64 1   
    60    33    34 ar  
    61    33    40 ar  
    62    34    35 ar  
    63    35    36 1   
    64    35    38 ar  
    65    36    37 1   
    66    36    65 1   
    67    37    66 1   
    68    37    67 1   
    69    37    68 1   
    70    38    39 ar  
    71    39    40 ar  
    72    39    69 1   
    73    40    41 ar  
    74    41    42 1   
@<TRIPOS>SUBSTRUCTURE
     1 3Z3         1 TEMP              0 ****  ****    0 ROOT
