@<TRIPOS>MOLECULE
3Z4
   67    72     1     0     0
SMALL
bcc


@<TRIPOS>ATOM
      1 C32          0.0000     0.0000     0.0000 c3         1 3Z4       0.198100
      2 N4           1.4650     0.0000     0.0000 nu         1 3Z4      -0.426200
      3 C24          2.1550     0.0000     1.1950 cc         1 3Z4       0.499100
      4 N3           1.6060    -0.0010     2.3610 nd         1 3Z4      -0.563100
      5 S1           3.9070    -0.0070     1.3420 ss         1 3Z4      -0.254100
      6 C23          3.7720    -0.0030     3.0990 ca         1 3Z4      -0.037100
      7 C28          4.7460    -0.0050     4.0910 ca         1 3Z4      -0.045000
      8 C22          2.4150    -0.0020     3.4390 ca         1 3Z4       0.123400
      9 C25          2.0620    -0.0040     4.8070 ca         1 3Z4      -0.074000
     10 C26          3.0190    -0.0050     5.7710 ca         1 3Z4      -0.083000
     11 C27          4.3740    -0.0010     5.4290 cp         1 3Z4      -0.022000
     12 C16          5.4100    -0.0040     6.4900 cp         1 3Z4      -0.134000
     13 C17          6.2670    -1.1020     6.6330 ca         1 3Z4       0.121600
     14 N5           6.1510    -2.1940     5.7850 nv         1 3Z4      -0.446200
     15 C21          5.5370     1.0880     7.3440 ca         1 3Z4      -0.009300
     16 C29          4.6210     2.2740     7.1860 c3         1 3Z4       0.049200
     17 C20          6.5030     1.0900     8.3350 ca         1 3Z4      -0.176000
     18 C19          7.3490     0.0130     8.4890 ca         1 3Z4       0.003000
     19 C18          7.2420    -1.0920     7.6410 ca         1 3Z4      -0.232600
     20 C30          8.1520    -2.2420     7.8020 c          1 3Z4       0.716900
     21 O2           7.9900    -3.0210     8.7250 o          1 3Z4      -0.592100
     22 C13          9.2500    -2.4480     6.8560 cc         1 3Z4      -0.447400
     23 C15          9.6550    -1.5450     5.7710 c          1 3Z4       0.645700
     24 O1           9.1420    -0.4790     5.4850 o          1 3Z4      -0.655500
     25 N2          10.7050    -2.1210     5.1520 n          1 3Z4       0.055600
     26 C7          11.3960    -1.5880     4.0580 ca         1 3Z4      -0.076400
     27 C8          11.6570    -2.3790     2.9470 ca         1 3Z4      -0.102000
     28 C9          12.3390    -1.8490     1.8690 ca         1 3Z4      -0.085000
     29 C10         12.7630    -0.5340     1.8960 ca         1 3Z4      -0.097000
     30 C11         12.5060     0.2560     3.0020 ca         1 3Z4      -0.085000
     31 C12         11.8180    -0.2650     4.0800 ca         1 3Z4      -0.102000
     32 N1          10.9920    -3.3380     5.7770 na         1 3Z4      -0.157400
     33 C31         12.0660    -4.2540     5.3880 c3         1 3Z4       0.188100
     34 C14         10.1220    -3.5390     6.8080 cd         1 3Z4       0.135800
     35 C1          10.1040    -4.7030     7.7120 ca         1 3Z4      -0.060800
     36 C2           8.9140    -5.4060     7.9280 ca         1 3Z4      -0.061000
     37 C3           8.9050    -6.4950     8.7750 ca         1 3Z4      -0.102500
     38 C4          10.0690    -6.8910     9.4100 ca         1 3Z4      -0.081000
     39 C5          11.2500    -6.2010     9.2010 ca         1 3Z4      -0.102500
     40 C6          11.2760    -5.1130     8.3530 ca         1 3Z4      -0.061000
     41 H1          -0.3610     0.8840     0.5120 h1         1 3Z4       0.011033
     42 H2          -0.3610     0.0020    -1.0210 h1         1 3Z4       0.011033
     43 H3          -0.3610    -0.8850     0.5090 h1         1 3Z4       0.011033
     44 H4           1.9650     0.0010    -0.8670 hn         1 3Z4       0.294800
     45 H5           5.7950    -0.0020     3.8200 ha         1 3Z4       0.126000
     46 H6           1.0160    -0.0070     5.0900 ha         1 3Z4       0.112000
     47 H7           2.7290    -0.0010     6.8150 ha         1 3Z4       0.114000
     48 H8           6.6760    -3.0260     5.9660 hn         1 3Z4       0.271300
     49 H9           5.5000    -2.1690     5.0250 hn         1 3Z4       0.271300
     50 H10          3.6290     2.0120     7.5340 hc         1 3Z4       0.010367
     51 H11          4.5740     2.5590     6.1420 hc         1 3Z4       0.010367
     52 H12          5.0010     3.1040     7.7700 hc         1 3Z4       0.010367
     53 H13          6.5940     1.9440     8.9960 ha         1 3Z4       0.107000
     54 H14          8.1010     0.0250     9.2690 ha         1 3Z4       0.099000
     55 H15         11.3240    -3.4100     2.9250 ha         1 3Z4       0.119000
     56 H16         12.5420    -2.4650     1.0010 ha         1 3Z4       0.107500
     57 H17         13.3010    -0.1210     1.0510 ha         1 3Z4       0.106000
     58 H18         12.8370     1.2870     3.0190 ha         1 3Z4       0.107500
     59 H19         11.6160     0.3550     4.9450 ha         1 3Z4       0.119000
     60 H20         11.6530    -5.0670     4.8030 h1         1 3Z4       0.028367
     61 H21         12.8000    -3.7200     4.7980 h1         1 3Z4       0.028367
     62 H22         12.5390    -4.6540     6.2770 h1         1 3Z4       0.028367
     63 H23          8.0030    -5.0970     7.4310 ha         1 3Z4       0.109500
     64 H24          7.9850    -7.0400     8.9430 ha         1 3Z4       0.106000
     65 H25         10.0560    -7.7460    10.0760 ha         1 3Z4       0.103000
     66 H26         12.1570    -6.5180     9.7000 ha         1 3Z4       0.106000
     67 H27         12.2010    -4.5730     8.1910 ha         1 3Z4       0.109500
@<TRIPOS>BOND
     1     1     2 1   
     2     1    41 1   
     3     1    42 1   
     4     1    43 1   
     5     2     3 1   
     6     2    44 1   
     7     3     4 2   
     8     3     5 1   
     9     4     8 1   
    10     5     6 1   
    11     6     7 ar  
    12     6     8 ar  
    13     7    11 ar  
    14     7    45 1   
    15     8     9 ar  
    16     9    10 ar  
    17     9    46 1   
    18    10    11 ar  
    19    10    47 1   
    20    11    12 1   
    21    12    13 ar  
    22    12    15 ar  
    23    13    14 1   
    24    13    19 ar  
    25    14    48 1   
    26    14    49 1   
    27    15    16 1   
    28    15    17 ar  
    29    16    50 1   
    30    16    51 1   
    31    16    52 1   
    32    17    18 ar  
    33    17    53 1   
    34    18    19 ar  
    35    18    54 1   
    36    19    20 1   
    37    20    21 2   
    38    20    22 1   
    39    22    23 1   
    40    22    34 2   
    41    23    24 2   
    42    23    25 1   
    43    25    26 1   
    44    25    32 1   
    45    26    27 ar  
    46    26    31 ar  
    47    27    28 ar  
    48    27    55 1   
    49    28    29 ar  
    50    28    56 1   
    51    29    30 ar  
    52    29    57 1   
    53    30    31 ar  
    54    30    58 1   
    55    31    59 1   
    56    32    33 1   
    57    32    34 1   
    58    33    60 1   
    59    33    61 1   
    60    33    62 1   
    61    34    35 1   
    62    35    36 ar  
    63    35    40 ar  
    64    36    37 ar  
    65    36    63 1   
    66    37    38 ar  
    67    37    64 1   
    68    38    39 ar  
    69    38    65 1   
    70    39    40 ar  
    71    39    66 1   
    72    40    67 1   
@<TRIPOS>SUBSTRUCTURE
     1 3Z4         1 TEMP              0 ****  ****    0 ROOT
