@<TRIPOS>MOLECULE
3Z5
   68    73     1     0     0
SMALL
bcc


@<TRIPOS>ATOM
      1 C27          0.0000     0.0000     0.0000 ca         1 3Z5      -0.075000
      2 C25          1.4020     0.0000     0.0000 ca         1 3Z5      -0.153300
      3 C28          2.1330     0.0000     1.2050 ca         1 3Z5      -0.052000
      4 C31          3.4970    -0.0000     1.1310 ca         1 3Z5      -0.223300
      5 C32          4.1250     0.0000    -0.1130 ca         1 3Z5       0.377600
      6 C34          5.6310     0.0000    -0.1720 c3         1 3Z5      -0.043400
      7 N4           3.4430     0.0010    -1.2310 nb         1 3Z5      -0.567000
      8 C26          2.1050     0.0000    -1.2310 ca         1 3Z5       0.373600
      9 C29          1.3840     0.0010    -2.4380 ca         1 3Z5      -0.148300
     10 C33          0.0260     0.0020    -2.4200 ca         1 3Z5      -0.086000
     11 C30         -0.6800     0.0000    -1.2050 cp         1 3Z5      -0.013000
     12 C12         -2.1620    -0.0060    -1.2140 cp         1 3Z5      -0.063000
     13 C13         -2.8630    -1.1060    -0.7040 ca         1 3Z5       0.104600
     14 N3          -2.1750    -2.1940    -0.1860 nv         1 3Z5      -0.563200
     15 C11         -2.8610     1.0830    -1.7250 ca         1 3Z5      -0.057300
     16 C14         -2.1080     2.2700    -2.2690 c3         1 3Z5       0.053200
     17 C10         -4.2440     1.0810    -1.7360 ca         1 3Z5      -0.116000
     18 C9          -4.9460     0.0020    -1.2420 ca         1 3Z5      -0.051000
     19 C8          -4.2650    -1.0990    -0.7180 ca         1 3Z5      -0.157600
     20 C7          -5.0170    -2.2510    -0.1840 c          1 3Z5       0.720900
     21 O2          -5.5450    -3.0400    -0.9460 o          1 3Z5      -0.594100
     22 C1          -5.1290    -2.4450     1.2630 cc         1 3Z5      -0.441400
     23 C3          -4.5460    -1.5960     2.3120 c          1 3Z5       0.646700
     24 O1          -3.8770    -0.5940     2.1440 o          1 3Z5      -0.665500
     25 N2          -4.8960    -2.1390     3.4960 n          1 3Z5       0.057600
     26 C4          -4.5440    -1.6380     4.7530 ca         1 3Z5      -0.077400
     27 C15         -4.0110    -2.4860     5.7160 ca         1 3Z5      -0.101000
     28 C16         -3.6660    -1.9880     6.9570 ca         1 3Z5      -0.085500
     29 C17         -3.8500    -0.6470     7.2420 ca         1 3Z5      -0.096000
     30 C18         -4.3820     0.1990     6.2860 ca         1 3Z5      -0.085500
     31 C19         -4.7230    -0.2910     5.0400 ca         1 3Z5      -0.101000
     32 N1          -5.6650    -3.2820     3.2630 na         1 3Z5      -0.158400
     33 C5          -6.2310    -4.1440     4.3030 c3         1 3Z5       0.197100
     34 C2          -5.8150    -3.4700     1.9210 cd         1 3Z5       0.138800
     35 C6          -6.5650    -4.5630     1.2770 ca         1 3Z5      -0.066800
     36 C20         -7.5120    -4.2770     0.2890 ca         1 3Z5      -0.057000
     37 C21         -8.2100    -5.3050    -0.3090 ca         1 3Z5      -0.106500
     38 C22         -7.9750    -6.6160     0.0650 ca         1 3Z5      -0.079000
     39 C23         -7.0390    -6.9070     1.0430 ca         1 3Z5      -0.106500
     40 C24         -6.3290    -5.8900     1.6460 ca         1 3Z5      -0.057000
     41 H1          -0.5460    -0.0020     0.9360 ha         1 3Z5       0.122000
     42 H2           1.6270    -0.0000     2.1630 ha         1 3Z5       0.111000
     43 H3           4.0880     0.0600     2.0370 ha         1 3Z5       0.112000
     44 H4           6.0110     0.8980     0.2990 hc         1 3Z5       0.012700
     45 H5           6.0130    -0.8700     0.3470 hc         1 3Z5       0.012700
     46 H6           5.9510    -0.0280    -1.2070 hc         1 3Z5       0.012700
     47 H7           1.9120     0.0030    -3.3840 ha         1 3Z5       0.116000
     48 H8          -0.5210     0.0020    -3.3550 ha         1 3Z5       0.111000
     49 H9          -1.9950    -2.9920    -0.7630 hn         1 3Z5       0.278800
     50 H10         -1.8590    -2.1800     0.7630 hn         1 3Z5       0.278800
     51 H11         -2.7920     3.0990    -2.4070 hc         1 3Z5       0.010367
     52 H12         -1.6610     2.0080    -3.2200 hc         1 3Z5       0.010367
     53 H13         -1.3310     2.5550    -1.5700 hc         1 3Z5       0.010367
     54 H14         -4.7800     1.9330    -2.1380 ha         1 3Z5       0.105000
     55 H15         -6.0290     0.0110    -1.2540 ha         1 3Z5       0.100000
     56 H16         -3.8670    -3.5360     5.4930 ha         1 3Z5       0.118500
     57 H17         -3.2500    -2.6480     7.7090 ha         1 3Z5       0.107500
     58 H18         -3.5810    -0.2600     8.2170 ha         1 3Z5       0.106000
     59 H19         -4.5230     1.2490     6.5110 ha         1 3Z5       0.107500
     60 H20         -5.1400     0.3720     4.2920 ha         1 3Z5       0.118500
     61 H21         -5.5200    -4.9210     4.5560 h1         1 3Z5       0.026033
     62 H22         -7.1460    -4.5970     3.9400 h1         1 3Z5       0.026033
     63 H23         -6.4470    -3.5520     5.1850 h1         1 3Z5       0.026033
     64 H24         -7.6980    -3.2510    -0.0060 ha         1 3Z5       0.111000
     65 H25         -8.9450    -5.0860    -1.0750 ha         1 3Z5       0.106500
     66 H26         -8.5280    -7.4190    -0.4070 ha         1 3Z5       0.103000
     67 H27         -6.8590    -7.9360     1.3290 ha         1 3Z5       0.106500
     68 H28         -5.5970    -6.1190     2.4110 ha         1 3Z5       0.111000
@<TRIPOS>BOND
     1     1     2 ar  
     2     1    11 ar  
     3     1    41 1   
     4     2     3 ar  
     5     2     8 ar  
     6     3     4 ar  
     7     3    42 1   
     8     4     5 ar  
     9     4    43 1   
    10     5     6 1   
    11     5     7 ar  
    12     6    44 1   
    13     6    45 1   
    14     6    46 1   
    15     7     8 ar  
    16     8     9 ar  
    17     9    10 ar  
    18     9    47 1   
    19    10    11 ar  
    20    10    48 1   
    21    11    12 1   
    22    12    13 ar  
    23    12    15 ar  
    24    13    14 1   
    25    13    19 ar  
    26    14    49 1   
    27    14    50 1   
    28    15    16 1   
    29    15    17 ar  
    30    16    51 1   
    31    16    52 1   
    32    16    53 1   
    33    17    18 ar  
    34    17    54 1   
    35    18    19 ar  
    36    18    55 1   
    37    19    20 1   
    38    20    21 2   
    39    20    22 1   
    40    22    23 1   
    41    22    34 2   
    42    23    24 2   
    43    23    25 1   
    44    25    26 1   
    45    25    32 1   
    46    26    27 ar  
    47    26    31 ar  
    48    27    28 ar  
    49    27    56 1   
    50    28    29 ar  
    51    28    57 1   
    52    29    30 ar  
    53    29    58 1   
    54    30    31 ar  
    55    30    59 1   
    56    31    60 1   
    57    32    33 1   
    58    32    34 1   
    59    33    61 1   
    60    33    62 1   
    61    33    63 1   
    62    34    35 1   
    63    35    36 ar  
    64    35    40 ar  
    65    36    37 ar  
    66    36    64 1   
    67    37    38 ar  
    68    37    65 1   
    69    38    39 ar  
    70    38    66 1   
    71    39    40 ar  
    72    39    67 1   
    73    40    68 1   
@<TRIPOS>SUBSTRUCTURE
     1 3Z5         1 TEMP              0 ****  ****    0 ROOT
