@<TRIPOS>MOLECULE
3Z6
   56    60     1     0     0
SMALL
bcc


@<TRIPOS>ATOM
      1 F1           0.0000     0.0000     0.0000 f          1 3Z6      -0.205967
      2 C23          1.3980     0.0000     0.0000 c3         1 3Z6       0.641200
      3 F2           1.8650     0.0000     1.3190 f          1 3Z6      -0.205967
      4 F3           1.8650    -1.1420    -0.6590 f          1 3Z6      -0.205967
      5 C9           1.9010     1.2310    -0.7110 ca         1 3Z6      -0.180300
      6 C8           3.1080     1.1960    -1.3820 ca         1 3Z6      -0.041000
      7 C10          1.1510     2.3910    -0.6950 ca         1 3Z6      -0.076000
      8 C11          1.6120     3.5210    -1.3490 ca         1 3Z6       0.105900
      9 F4           0.8790     4.6570    -1.3350 f          1 3Z6      -0.122900
     10 C12          2.8240     3.4870    -2.0170 ca         1 3Z6      -0.085000
     11 C7           3.5700     2.3240    -2.0340 ca         1 3Z6      -0.052300
     12 C22          4.8900     2.2880    -2.7610 c3         1 3Z6      -0.058100
     13 C21          5.9950     2.6820    -1.8150 c          1 3Z6       0.580100
     14 O1           5.7360     2.9670    -0.6650 o          1 3Z6      -0.619100
     15 N4           7.2710     2.7210    -2.2480 n          1 3Z6       0.018000
     16 C15          8.4260     3.0890    -1.4250 c3         1 3Z6       0.045000
     17 C16          9.6400     2.9800    -2.3620 c3         1 3Z6       0.034900
     18 C13          9.0590     2.5440    -3.6890 ca         1 3Z6      -0.136300
     19 C20          9.6700     2.2830    -4.8980 ca         1 3Z6      -0.047000
     20 C14          7.6870     2.4090    -3.5470 ca         1 3Z6      -0.088400
     21 C19          6.9220     2.0120    -4.6470 ca         1 3Z6      -0.167000
     22 C18          7.5240     1.7570    -5.8590 ca         1 3Z6      -0.075000
     23 C17          8.9060     1.8770    -5.9920 ca         1 3Z6      -0.022800
     24 C5           9.5570     1.6040    -7.2960 cc         1 3Z6      -0.055400
     25 C1           9.3650     0.4200    -8.1430 ca         1 3Z6      -0.390400
     26 C6          10.4420     2.4020    -7.9430 cd         1 3Z6      -0.259100
     27 N3          10.8190     1.8100    -9.1180 na         1 3Z6       0.317900
     28 C25         11.7650     2.3830   -10.0780 c3         1 3Z6      -0.010400
     29 C2          10.1850     0.6070    -9.2690 ca         1 3Z6       0.301800
     30 N1          10.1990    -0.3390   -10.2080 nb         1 3Z6      -0.668000
     31 C3           9.4650    -1.4220   -10.0830 ca         1 3Z6       0.646300
     32 C24          9.5180    -2.4620   -11.1730 c3         1 3Z6      -0.031400
     33 N2           8.6820    -1.6370    -9.0410 nb         1 3Z6      -0.713000
     34 C4           8.5960    -0.7480    -8.0540 ca         1 3Z6       0.590200
     35 N5           7.7760    -0.9770    -6.9640 nv         1 3Z6      -0.556500
     36 H1           3.6940     0.2850    -1.3970 ha         1 3Z6       0.122000
     37 H2           0.2020     2.4160    -0.1730 ha         1 3Z6       0.133000
     38 H3           3.1850     4.3710    -2.5290 ha         1 3Z6       0.122000
     39 H4           4.8630     2.9800    -3.5940 hc         1 3Z6       0.050200
     40 H5           5.0720     1.2860    -3.1300 hc         1 3Z6       0.050200
     41 H6           8.3190     4.1130    -1.0870 h1         1 3Z6       0.033200
     42 H7          10.3190     2.2210    -1.9940 hc         1 3Z6       0.032200
     43 H8          10.7450     2.3780    -4.9940 ha         1 3Z6       0.111000
     44 H9           5.8480     1.9170    -4.5500 ha         1 3Z6       0.130000
     45 H10          6.9240     1.4430    -6.7040 ha         1 3Z6       0.118000
     46 H11         10.7940     3.3610    -7.5850 h4         1 3Z6       0.148000
     47 H12         11.2770     2.5050   -11.0380 h1         1 3Z6       0.022700
     48 H13         12.6150     1.7210   -10.1880 h1         1 3Z6       0.022700
     49 H14         12.1030     3.3480    -9.7200 h1         1 3Z6       0.022700
     50 H15          9.0050    -3.3570   -10.8440 hc         1 3Z6       0.016367
     51 H16          9.0360    -2.0760   -12.0640 hc         1 3Z6       0.016367
     52 H17         10.5510    -2.6990   -11.3960 hc         1 3Z6       0.016367
     53 H18          6.8760    -1.3950    -7.0940 hn         1 3Z6       0.279300
     54 H19          8.0670    -0.6890    -6.0500 hn         1 3Z6       0.279300
     55 H20          8.5310     2.3830    -0.6100 h1         1 3Z6       0.033200
     56 H21         10.1060     3.9520    -2.4700 hc         1 3Z6       0.032200
@<TRIPOS>BOND
     1     1     2 1   
     2     2     3 1   
     3     2     4 1   
     4     2     5 1   
     5     5     6 ar  
     6     5     7 ar  
     7     6    11 ar  
     8     6    36 1   
     9     7     8 ar  
    10     7    37 1   
    11     8     9 1   
    12     8    10 ar  
    13    10    11 ar  
    14    10    38 1   
    15    11    12 1   
    16    12    13 1   
    17    12    39 1   
    18    12    40 1   
    19    13    14 2   
    20    13    15 1   
    21    15    16 1   
    22    15    20 1   
    23    16    17 1   
    24    16    41 1   
    25    16    55 1   
    26    17    18 1   
    27    17    42 1   
    28    17    56 1   
    29    18    19 ar  
    30    18    20 ar  
    31    19    23 ar  
    32    19    43 1   
    33    20    21 ar  
    34    21    22 ar  
    35    21    44 1   
    36    22    23 ar  
    37    22    45 1   
    38    23    24 1   
    39    24    25 1   
    40    24    26 2   
    41    25    29 ar  
    42    25    34 ar  
    43    26    27 1   
    44    26    46 1   
    45    27    28 1   
    46    27    29 1   
    47    28    47 1   
    48    28    48 1   
    49    28    49 1   
    50    29    30 ar  
    51    30    31 ar  
    52    31    32 1   
    53    31    33 ar  
    54    32    50 1   
    55    32    51 1   
    56    32    52 1   
    57    33    34 ar  
    58    34    35 1   
    59    35    53 1   
    60    35    54 1   
@<TRIPOS>SUBSTRUCTURE
     1 3Z6         1 TEMP              0 ****  ****    0 ROOT
