@<TRIPOS>MOLECULE
molecule
   56    60     1     0     0
SMALL
bcc


@<TRIPOS>ATOM
      1 F1           0.0000     0.0000     0.0000 f          1 3Z6      -0.220967
      2 C23          1.3980     0.0000     0.0000 c3         1 3Z6       0.676200
      3 F2           1.8650     0.0000     1.3190 f          1 3Z6      -0.220967
      4 F3           1.8650    -1.1420    -0.6590 f          1 3Z6      -0.220967
      5 C9           1.9010     1.2310    -0.7110 ca         1 3Z6      -0.152300
      6 C8           3.1080     1.1960    -1.3820 ca         1 3Z6      -0.081000
      7 C10          1.1510     2.3910    -0.6950 ca         1 3Z6      -0.119000
      8 C11          1.6120     3.5210    -1.3490 ca         1 3Z6       0.133900
      9 F4           0.8790     4.6570    -1.3350 f          1 3Z6      -0.132900
     10 C12          2.8240     3.4870    -2.0170 ca         1 3Z6      -0.124000
     11 C7           3.5700     2.3240    -2.0340 ca         1 3Z6      -0.051300
     12 C22          4.8900     2.2880    -2.7610 c3         1 3Z6      -0.113100
     13 C21          5.9950     2.6820    -1.8150 c          1 3Z6       0.671100
     14 O1           5.7360     2.9670    -0.6650 o          1 3Z6      -0.574100
     15 N4           7.2710     2.7210    -2.2480 n          1 3Z6      -0.374000
     16 C15          8.4260     3.0890    -1.4250 c3         1 3Z6       0.108000
     17 C16          9.6400     2.9800    -2.3620 c3         1 3Z6      -0.046100
     18 C13          9.0590     2.5440    -3.6890 ca         1 3Z6      -0.134300
     19 C20          9.6700     2.2830    -4.8980 ca         1 3Z6      -0.078000
     20 C14          7.6870     2.4090    -3.5470 ca         1 3Z6       0.050600
     21 C19          6.9220     2.0120    -4.6470 ca         1 3Z6      -0.187000
     22 C18          7.5240     1.7570    -5.8590 ca         1 3Z6      -0.090000
     23 C17          8.9060     1.8770    -5.9920 ca         1 3Z6      -0.041800
     24 C5           9.5570     1.6040    -7.2960 cc         1 3Z6      -0.077400
     25 C1           9.3650     0.4200    -8.1430 ca         1 3Z6      -0.387400
     26 C6          10.4420     2.4020    -7.9430 cd         1 3Z6      -0.094100
     27 N3          10.8190     1.8100    -9.1180 na         1 3Z6      -0.160100
     28 C25         11.7650     2.3830   -10.0780 c3         1 3Z6       0.041600
     29 C2          10.1850     0.6070    -9.2690 ca         1 3Z6       0.519800
     30 N1          10.1990    -0.3390   -10.2080 nb         1 3Z6      -0.793000
     31 C3           9.4650    -1.4220   -10.0830 ca         1 3Z6       0.738300
     32 C24          9.5180    -2.4620   -11.1730 c3         1 3Z6      -0.119400
     33 N2           8.6820    -1.6370    -9.0410 nb         1 3Z6      -0.817000
     34 C4           8.5960    -0.7480    -8.0540 ca         1 3Z6       0.772200
     35 N5           7.7760    -0.9770    -6.9640 nv         1 3Z6      -1.023500
     36 H1           3.6940     0.2850    -1.3970 ha         1 3Z6       0.151000
     37 H2           0.2020     2.4160    -0.1730 ha         1 3Z6       0.162000
     38 H3           3.1850     4.3710    -2.5290 ha         1 3Z6       0.152000
     39 H4           4.8630     2.9800    -3.5940 hc         1 3Z6       0.081200
     40 H5           5.0720     1.2860    -3.1300 hc         1 3Z6       0.081200
     41 H6           8.3190     4.1130    -1.0870 h1         1 3Z6       0.065200
     42 H7          10.3190     2.2210    -1.9940 hc         1 3Z6       0.066200
     43 H8          10.7450     2.3780    -4.9940 ha         1 3Z6       0.139000
     44 H9           5.8480     1.9170    -4.5500 ha         1 3Z6       0.141000
     45 H10          6.9240     1.4430    -6.7040 ha         1 3Z6       0.149000
     46 H11         10.7940     3.3610    -7.5850 h4         1 3Z6       0.174000
     47 H12         11.2770     2.5050   -11.0380 h1         1 3Z6       0.054367
     48 H13         12.6150     1.7210   -10.1880 h1         1 3Z6       0.054367
     49 H14         12.1030     3.3480    -9.7200 h1         1 3Z6       0.054367
     50 H15          9.0050    -3.3570   -10.8440 hc         1 3Z6       0.058700
     51 H16          9.0360    -2.0760   -12.0640 hc         1 3Z6       0.058700
     52 H17         10.5510    -2.6990   -11.3960 hc         1 3Z6       0.058700
     53 H18          6.8760    -1.3950    -7.0940 hn         1 3Z6       0.444800
     54 H19          8.0670    -0.6890    -6.0500 hn         1 3Z6       0.444800
     55 H20          8.5310     2.3830    -0.6100 h1         1 3Z6       0.065200
     56 H21         10.1060     3.9520    -2.4700 hc         1 3Z6       0.066200
@<TRIPOS>BOND
     1     2     3 1
     2     2     1 1
     3     4     2 1
     4     5     2 1
     5     6     5 ar
     6     6    36 1
     7     7     5 ar
     8     7    37 1
     9     8     7 ar
    10     9     8 1
    11    10    11 ar
    12    10     8 ar
    13    10    38 1
    14    11     6 ar
    15    12    11 1
    16    12    39 1
    17    12    40 1
    18    13    12 1
    19    14    13 2
    20    15    16 1
    21    15    13 1
    22    16    41 1
    23    17    16 1
    24    17    42 1
    25    18    20 ar
    26    18    17 1
    27    19    18 ar
    28    19    43 1
    29    20    15 1
    30    21    20 ar
    31    21    44 1
    32    22    21 ar
    33    22    45 1
    34    23    22 ar
    35    23    19 ar
    36    24    23 1
    37    25    24 1
    38    26    24 2
    39    26    46 1
    40    27    26 1
    41    28    27 1
    42    28    47 1
    43    28    48 1
    44    28    49 1
    45    29    27 1
    46    29    25 ar
    47    30    29 ar
    48    31    30 ar
    49    31    33 ar
    50    32    31 1
    51    32    50 1
    52    32    51 1
    53    32    52 1
    54    33    34 ar
    55    34    25 ar
    56    34    35 1
    57    35    53 1
    58    35    54 1
    59    16    55 1
    60    17    56 1
@<TRIPOS>SUBSTRUCTURE
     1 3Z6         1 TEMP              0 ****  ****    0 ROOT
