@<TRIPOS>MOLECULE
3Z7
   17    17     1     0     0
SMALL
bcc


@<TRIPOS>ATOM
      1 C1          0.0750   -0.0690    0.0500 ca        1 3Z7      0.042100
      2 C2          1.4690   -0.0250    0.0490 ca        1 3Z7     -0.137000
      3 C3         -0.6390   -0.0560    1.2720 ca        1 3Z7      0.125100
      4 C4          0.0610    0.0000    2.4830 ca        1 3Z7     -0.140000
      5 C5          2.1540    0.0310    1.2670 ca        1 3Z7     -0.033900
      6 C6          1.4540    0.0430    2.4740 ca        1 3Z7     -0.097000
      7 O7         -0.7200   -0.1260   -1.0830 os        1 3Z7     -0.346900
      8 BR8         4.0260    0.0890    1.2680 br        1 3Z7     -0.087100
      9 O9         -2.0090   -0.0970    1.3370 oh        1 3Z7     -0.491100
     10 C10        -0.0330   -0.1340   -2.3290 c3        1 3Z7      0.119700
     11 H11         2.0250   -0.0350   -0.9000 ha        1 3Z7      0.152000
     12 H12        -0.5000    0.0090    3.4290 ha        1 3Z7      0.158000
     13 H13         1.9940    0.0870    3.4330 ha        1 3Z7      0.151000
     14 H14        -2.3550   -0.1330    0.4310 ho        1 3Z7      0.439000
     15 H15         0.5640    0.8020   -2.4550 h1        1 3Z7      0.048033
     16 H16         0.6250   -1.0340   -2.4100 h1        1 3Z7      0.048033
     17 H17        -0.8610   -0.1800   -3.0810 h1        1 3Z7      0.048033
@<TRIPOS>BOND
     1    1    2 ar  
     2    1    3 ar  
     3    1    7 1   
     4    2    5 ar  
     5    2   11 1   
     6    3    4 ar  
     7    3    9 1   
     8    4    6 ar  
     9    4   12 1   
    10    5    6 ar  
    11    5    8 1   
    12    6   13 1   
    13    7   10 1   
    14    9   14 1   
    15   10   15 1   
    16   10   16 1   
    17   10   17 1   
@<TRIPOS>SUBSTRUCTURE
     1 3Z7         1 TEMP              0 ****  ****    0 ROOT
