@<TRIPOS>MOLECULE
molecule
   17    17     1     0     0
SMALL
bcc


@<TRIPOS>ATOM
      1 C1           0.0000     0.0000     0.0000 ca         1 3Z7       0.127100
      2 C2           1.3860     0.0000     0.0000 ca         1 3Z7      -0.187000
      3 C3          -0.6930    -0.0010     1.2080 ca         1 3Z7       0.091100
      4 C4           0.0070    -0.0010     2.4040 ca         1 3Z7      -0.133000
      5 C5           2.0770     0.0000     1.1980 ca         1 3Z7       0.008100
      6 C6           1.3890    -0.0010     2.3980 ca         1 3Z7      -0.126000
      7 O7          -0.6820     0.0060    -1.1760 os         1 3Z7      -0.309900
      8 Br8          3.9690    -0.0010     1.1960 br         1 3Z7      -0.092100
      9 O9          -2.0530     0.0000     1.2130 oh         1 3Z7      -0.501100
     10 C10          0.0950     0.0060    -2.3760 c3         1 3Z7       0.123700
     11 H11          1.9270     0.0010    -0.9380 ha         1 3Z7       0.152000
     12 H12         -0.5300    -0.0020     3.3440 ha         1 3Z7       0.148000
     13 H13          1.9340    -0.0010     3.3340 ha         1 3Z7       0.147000
     14 H14         -2.3670    -0.8410     1.5010 ho         1 3Z7       0.418000
     15 H15         -0.5670     0.0070    -3.2340 h1         1 3Z7       0.044367
     16 H16          0.7200     0.8910    -2.4010 h1         1 3Z7       0.044367
     17 H17          0.7190    -0.8780    -2.4020 h1         1 3Z7       0.044367
@<TRIPOS>BOND
     1    10     7 1   
     2     7     1 1   
     3     2     1 ar  
     4     2     5 ar  
     5     1     3 ar  
     6     8     5 1   
     7     5     6 ar  
     8     3     9 1   
     9     3     4 ar  
    10     6     4 ar  
    11     2    11 1   
    12     4    12 1   
    13     6    13 1   
    14     9    14 1   
    15    10    15 1   
    16    10    16 1   
    17    10    17 1   
@<TRIPOS>SUBSTRUCTURE
     1 3Z7         1 TEMP              0 ****  ****    0 ROOT
