@<TRIPOS>MOLECULE
molecule
   20    21     1     0     0
SMALL
bcc


@<TRIPOS>ATOM
      1 C12          0.0000     0.0000     0.0000 c3         1 3Z8      -0.057100
      2 C1           1.4030     0.0010    -2.4730 c          1 3Z8       0.718100
      3 C2           2.1870    -0.0010    -1.2200 ca         1 3Z8      -0.135600
      4 N3           0.1050     0.3600    -2.4350 ns         1 3Z8      -0.583900
      5 C4           1.5050     0.0000     0.0000 ca         1 3Z8      -0.057300
      6 C5           3.5790    -0.0020    -1.2390 ca         1 3Z8      -0.058000
      7 O6           1.9230    -0.3170    -3.5250 o          1 3Z8      -0.636500
      8 C7           2.2130     0.0000     1.1820 ca         1 3Z8      -0.129000
      9 C8           4.2780    -0.0010    -0.0470 ca         1 3Z8       0.012400
     10 C9          -0.5210     0.8020    -1.1900 c3         1 3Z8       0.106000
     11 C10          3.5980    -0.0000     1.1590 ca         1 3Z8      -0.098000
     12 Cl           6.0140    -0.0030    -0.0610 cl         1 3Z8      -0.100400
     13 H19         -0.3470     0.4680     0.9130 hc         1 3Z8       0.066700
     14 H20         -0.3470    -1.0220    -0.0910 hc         1 3Z8       0.066700
     15 H13         -0.4410     0.3240    -3.2730 hn         1 3Z8       0.331500
     16 H14          4.1110    -0.0030    -2.1830 ha         1 3Z8       0.169000
     17 H15          1.6870     0.0010     2.1280 ha         1 3Z8       0.139000
     18 H17         -1.5900     0.6450    -1.2690 h1         1 3Z8       0.050200
     19 H16         -0.2760     1.8460    -1.0350 h1         1 3Z8       0.050200
     20 H18          4.1520     0.0010     2.0900 ha         1 3Z8       0.146000
@<TRIPOS>BOND
     1    12     9 1   
     2    11     9 ar  
     3    11     8 ar  
     4     9     6 ar  
     5     8     5 ar  
     6     6     3 ar  
     7     5     3 ar  
     8     5     1 1   
     9     3     2 1   
    10     1    10 1   
    11     2     7 2   
    12     2     4 1   
    13    10     4 1   
    14     1    13 1   
    15     1    14 1   
    16     4    15 1   
    17     6    16 1   
    18     8    17 1   
    19    10    18 1   
    20    10    19 1   
    21    11    20 1   
@<TRIPOS>SUBSTRUCTURE
     1 3Z8         1 TEMP              0 ****  ****    0 ROOT
