@<TRIPOS>MOLECULE
3Z8
   20    21     1     0     0
SMALL
bcc


@<TRIPOS>ATOM
      1 C12          0.0000     0.0000     0.0000 c3         1 3Z8       0.016900
      2 C1           1.4030     0.0010    -2.4730 c          1 3Z8       0.641100
      3 C2           2.1870    -0.0010    -1.2200 ca         1 3Z8      -0.140600
      4 N3           0.1050     0.3600    -2.4350 ns         1 3Z8      -0.193900
      5 C4           1.5050     0.0000     0.0000 ca         1 3Z8      -0.067300
      6 C5           3.5790    -0.0020    -1.2390 ca         1 3Z8      -0.028000
      7 O6           1.9230    -0.3170    -3.5250 o          1 3Z8      -0.678500
      8 C7           2.2130     0.0000     1.1820 ca         1 3Z8      -0.100000
      9 C8           4.2780    -0.0010    -0.0470 ca         1 3Z8      -0.054600
     10 C9          -0.5210     0.8020    -1.1900 c3         1 3Z8       0.048000
     11 C10          3.5980    -0.0000     1.1590 ca         1 3Z8      -0.074000
     12 Cl           6.0140    -0.0030    -0.0610 cl         1 3Z8      -0.018400
     13 H19         -0.3470     0.4680     0.9130 hc         1 3Z8       0.032200
     14 H20         -0.3470    -1.0220    -0.0910 hc         1 3Z8       0.032200
     15 H13         -0.4410     0.3240    -3.2730 hn         1 3Z8       0.185500
     16 H14          4.1110    -0.0030    -2.1830 ha         1 3Z8       0.136000
     17 H15          1.6870     0.0010     2.1280 ha         1 3Z8       0.111000
     18 H17         -1.5900     0.6450    -1.2690 h1         1 3Z8       0.019200
     19 H16         -0.2760     1.8460    -1.0350 h1         1 3Z8       0.019200
     20 H18          4.1520     0.0010     2.0900 ha         1 3Z8       0.114000
@<TRIPOS>BOND
     1     1     5 1   
     2     1    10 1   
     3     1    13 1   
     4     1    14 1   
     5     2     3 1   
     6     2     4 1   
     7     2     7 2   
     8     3     5 ar  
     9     3     6 ar  
    10     4    10 1   
    11     4    15 1   
    12     5     8 ar  
    13     6     9 ar  
    14     6    16 1   
    15     8    11 ar  
    16     8    17 1   
    17     9    11 ar  
    18     9    12 1   
    19    10    18 1   
    20    10    19 1   
    21    11    20 1   
@<TRIPOS>SUBSTRUCTURE
     1 3Z8         1 TEMP              0 ****  ****    0 ROOT
