@<TRIPOS>MOLECULE
molecule
   87    91     1     0     0
SMALL
bcc


@<TRIPOS>ATOM
      1 C13          1.5060     0.0000     0.0000 c3         1 3Z9       0.229800
      2 C18         -2.1380    -0.0000    -1.3100 c3         1 3Z9       0.146000
      3 C15          0.0000     0.0000     0.0000 c          1 3Z9       0.675100
      4 C19         -2.4500    -0.0280    -2.8210 c3         1 3Z9      -0.081400
      5 C20         -1.1500    -0.6150    -3.4330 c3         1 3Z9      -0.102400
      6 C21         -0.0680    -0.0010    -2.5100 c3         1 3Z9       0.086000
      7 C22         -2.7140     1.2480    -0.6920 ca         1 3Z9       0.021700
      8 C23          2.4340     1.1420    -2.0250 ca         1 3Z9      -0.191000
      9 C24          2.8960     2.2720    -2.6800 ca         1 3Z9       0.113100
     10 C34         -3.7800     3.5360     0.4470 ca         1 3Z9      -0.151000
     11 C27          2.0420     2.4430    -0.0500 ca         1 3Z9      -0.096000
     12 C33         -2.4900     3.5510    -0.0670 ca         1 3Z9       0.124600
     13 C1           3.7260    -0.5110     2.9820 ca         1 3Z9      -0.137000
     14 C2           5.3140    -1.5290     0.9350 ca         1 3Z9      -0.090000
     15 C3           4.0590    -1.0200     0.6540 ca         1 3Z9      -0.189000
     16 C4           3.2620    -0.5110     1.6730 ca         1 3Z9       0.195600
     17 C5           5.7800    -1.5380     2.2310 ca         1 3Z9      -0.115300
     18 C6           4.9890    -1.0230     3.2620 ca         1 3Z9      -0.096600
     19 C7           5.5200    -1.0340     4.6420 c          1 3Z9       0.718100
     20 N8           6.8450    -1.1930     4.8330 ns         1 3Z9      -0.583900
     21 C9           7.7650    -1.2940     3.7030 c3         1 3Z9       0.108000
     22 C10          7.1420    -2.0900     2.5580 c3         1 3Z9      -0.048100
     23 O11          4.7730    -0.9010     5.5910 o          1 3Z9      -0.641500
     24 N12          1.9960     0.0000     1.3800 nu         1 3Z9      -0.807600
     25 C14          2.0090     1.2300    -0.7120 ca         1 3Z9      -0.121300
     26 O16         -0.6060     0.0000     1.0520 o          1 3Z9      -0.598100
     27 N17         -0.6750    -0.0000    -1.1660 n          1 3Z9      -0.486800
     28 C25          2.9310     3.4940    -2.0140 ca         1 3Z9       0.124100
     29 C26          2.5020     3.5750    -0.7000 ca         1 3Z9      -0.196000
     30 O28          3.3830     4.6050    -2.6520 os         1 3Z9      -0.311900
     31 C29          3.3900     5.8240    -1.9070 c3         1 3Z9       0.126700
     32 O30          3.3140     2.1880    -3.9710 os         1 3Z9      -0.310900
     33 C31          3.2520     0.9010    -4.5910 c3         1 3Z9       0.126700
     34 C32         -1.9580     2.4030    -0.6370 ca         1 3Z9      -0.165000
     35 C35         -4.5340     2.3810     0.3800 ca         1 3Z9      -0.009000
     36 C36         -4.0000     1.2360    -0.1840 ca         1 3Z9      -0.299500
     37 S37         -4.9610    -0.2390    -0.2540 sy         1 3Z9       1.199300
     38 C38         -4.1390    -1.3700     0.9010 c3         1 3Z9      -0.187900
     39 O39         -6.2330     0.1470     0.2450 o          1 3Z9      -0.632300
     40 O40         -4.8060    -0.6930    -1.5920 o          1 3Z9      -0.632300
     41 C41         -4.0300    -0.7060     2.2740 c3         1 3Z9      -0.073600
     42 C42         -4.9560    -2.6580     1.0220 c3         1 3Z9      -0.073600
     43 C44         -1.8480     5.5490     1.0560 c          1 3Z9       0.749100
     44 O45         -1.1920     6.7240     1.0700 os         1 3Z9      -0.442900
     45 O46         -2.5550     5.2370     1.9930 o          1 3Z9      -0.589000
     46 C47         -1.3740     7.5670     2.2390 c3         1 3Z9       0.158700
     47 H57          1.8670    -0.8850    -0.5110 h1         1 3Z9       0.079700
     48 H58         -2.5540    -0.8800    -0.8330 h1         1 3Z9       0.063700
     49 H60         -3.2940    -0.6770    -3.0250 hc         1 3Z9       0.085200
     50 H59         -2.6280     0.9730    -3.1930 hc         1 3Z9       0.085200
     51 H62         -1.0200    -0.2800    -4.4550 hc         1 3Z9       0.058700
     52 H61         -1.1460    -1.6960    -3.3670 hc         1 3Z9       0.058700
     53 H64          0.8240    -0.6150    -2.5180 h1         1 3Z9       0.050200
     54 H63          0.1600     1.0110    -2.8200 h1         1 3Z9       0.050200
     55 H65          2.4060     0.1900    -2.5410 ha         1 3Z9       0.140000
     56 H75         -4.1980     4.4310     0.8910 ha         1 3Z9       0.166000
     57 H67          1.7070     2.5080     0.9780 ha         1 3Z9       0.146000
     58 H48          3.1080    -0.1160     3.7790 ha         1 3Z9       0.157000
     59 H49          5.9290    -1.9240     0.1360 ha         1 3Z9       0.130000
     60 H50          3.6940    -1.0190    -0.3660 ha         1 3Z9       0.129000
     61 H51          7.2040    -1.2430     5.7660 hn         1 3Z9       0.327500
     62 H53          8.6590    -1.8100     4.0340 h1         1 3Z9       0.046700
     63 H52          7.9840    -0.2950     3.3480 h1         1 3Z9       0.046700
     64 H55          7.7780    -2.0170     1.6840 hc         1 3Z9       0.058200
     65 H54          7.0460    -3.1280     2.8540 hc         1 3Z9       0.058200
     66 H56          1.4250     0.3730     2.1130 hn         1 3Z9       0.464800
     67 H66          2.5280     4.5240    -0.1790 ha         1 3Z9       0.145000
     68 H68          3.9960     5.7000    -1.0180 h1         1 3Z9       0.042367
     69 H69          2.3770     6.0790    -1.6210 h1         1 3Z9       0.042367
     70 H70          3.8040     6.6180    -2.5170 h1         1 3Z9       0.042367
     71 H72          2.2160     0.6060    -4.7050 h1         1 3Z9       0.040700
     72 H71          3.7240     0.9470    -5.5650 h1         1 3Z9       0.040700
     73 H73          3.7680     0.1770    -3.9730 h1         1 3Z9       0.040700
     74 H74         -0.9530     2.4120    -1.0390 ha         1 3Z9       0.144000
     75 H76         -5.5420     2.3680     0.7790 ha         1 3Z9       0.165000
     76 H77         -3.1480    -1.6050     0.5330 h1         1 3Z9       0.108700
     77 H78         -3.5930    -1.4030     2.9790 hc         1 3Z9       0.052700
     78 H79         -3.4020     0.1740     2.2010 hc         1 3Z9       0.052700
     79 H80         -5.0170    -0.4170     2.6160 hc         1 3Z9       0.052700
     80 H83         -4.5460    -3.2730     1.8130 hc         1 3Z9       0.052700
     81 H81         -4.9160    -3.2010     0.0850 hc         1 3Z9       0.052700
     82 H82         -5.9860    -2.4120     1.2520 hc         1 3Z9       0.052700
     83 H84         -1.1140     4.9630    -0.7570 hn         1 3Z9       0.336500
     84 H85         -0.7810     8.4680     2.1300 h1         1 3Z9       0.053033
     85 H87         -1.0560     7.0300     3.1240 h1         1 3Z9       0.053033
     86 H86         -2.4200     7.8320     2.3330 h1         1 3Z9       0.053033
     87 N43         -1.7220     4.7200     0.0010 ns         1 3Z9      -0.466100
@<TRIPOS>BOND
     1    42    38 1
     2    39    37 2
     3    38    37 1
     4    38    41 1
     5    35    10 ar
     6    35    36 ar
     7    37    36 1
     8    37    40 2
     9    10    12 ar
    10    36     7 ar
    11    12    87 1
    12    12    34 ar
    13     7    34 ar
    14     7     2 1
    15    87    43 1
    16    33    32 1
    17     2     4 1
    18     2    27 1
    19    43    44 1
    20    43    45 2
    21    44    46 1
    22    26     3 2
    23     4     5 1
    24    32     9 1
    25     3    27 1
    26     3     1 1
    27    27     6 1
    28     5     6 1
    29     8     9 ar
    30     8    25 ar
    31     9    28 ar
    32    24     1 1
    33    24    16 1
    34     1    25 1
    35    25    11 ar
    36    15    16 ar
    37    15    14 ar
    38    28    30 1
    39    28    29 ar
    40    16    13 ar
    41    30    31 1
    42    14    17 ar
    43    11    29 ar
    44    13    18 ar
    45    17    18 ar
    46    17    22 1
    47    18    19 1
    48    22    21 1
    49    19    23 2
    50    19    20 1
    51    21    20 1
    52     1    47 1
    53     2    48 1
    54     4    49 1
    55     4    50 1
    56     5    51 1
    57     5    52 1
    58     6    53 1
    59     6    54 1
    60     8    55 1
    61    10    56 1
    62    11    57 1
    63    13    58 1
    64    14    59 1
    65    15    60 1
    66    20    61 1
    67    21    62 1
    68    21    63 1
    69    22    64 1
    70    22    65 1
    71    24    66 1
    72    29    67 1
    73    31    68 1
    74    31    69 1
    75    31    70 1
    76    33    71 1
    77    33    72 1
    78    33    73 1
    79    34    74 1
    80    35    75 1
    81    38    76 1
    82    41    77 1
    83    41    78 1
    84    41    79 1
    85    42    80 1
    86    42    81 1
    87    42    82 1
    88    87    83 1
    89    46    84 1
    90    46    85 1
    91    46    86 1
@<TRIPOS>SUBSTRUCTURE
     1 3Z9         1 TEMP              0 ****  ****    0 ROOT
