@<TRIPOS>MOLECULE
3Z9
   87    91     1     0     0
SMALL
bcc


@<TRIPOS>ATOM
      1 C13          1.5060     0.0000     0.0000 c3         1 3Z9       0.129800
      2 C18         -2.1380    -0.0000    -1.3100 c3         1 3Z9       0.063000
      3 C15          0.0000     0.0000     0.0000 c          1 3Z9       0.601100
      4 C19         -2.4500    -0.0280    -2.8210 c3         1 3Z9      -0.037400
      5 C20         -1.1500    -0.6150    -3.4330 c3         1 3Z9      -0.035400
      6 C21         -0.0680    -0.0010    -2.5100 c3         1 3Z9       0.019000
      7 C22         -2.7140     1.2480    -0.6920 ca         1 3Z9       0.022700
      8 C23          2.4340     1.1420    -2.0250 ca         1 3Z9      -0.187000
      9 C24          2.8960     2.2720    -2.6800 ca         1 3Z9       0.120100
     10 C34         -3.7800     3.5360     0.4470 ca         1 3Z9      -0.133000
     11 C27          2.0420     2.4430    -0.0500 ca         1 3Z9      -0.076000
     12 C33         -2.4900     3.5510    -0.0670 ca         1 3Z9      -0.029400
     13 C1           3.7260    -0.5110     2.9820 ca         1 3Z9      -0.108000
     14 C2           5.3140    -1.5290     0.9350 ca         1 3Z9      -0.056000
     15 C3           4.0590    -1.0200     0.6540 ca         1 3Z9      -0.181000
     16 C4           3.2620    -0.5110     1.6730 ca         1 3Z9       0.053600
     17 C5           5.7800    -1.5380     2.2310 ca         1 3Z9      -0.130300
     18 C6           4.9890    -1.0230     3.2620 ca         1 3Z9      -0.098600
     19 C7           5.5200    -1.0340     4.6420 c          1 3Z9       0.641100
     20 N8           6.8450    -1.1930     4.8330 ns         1 3Z9      -0.195900
     21 C9           7.7650    -1.2940     3.7030 c3         1 3Z9       0.050000
     22 C10          7.1420    -2.0900     2.5580 c3         1 3Z9       0.026900
     23 O11          4.7730    -0.9010     5.5910 o          1 3Z9      -0.683500
     24 N12          1.9960     0.0000     1.3800 nu         1 3Z9      -0.403600
     25 C14          2.0090     1.2300    -0.7120 ca         1 3Z9      -0.129300
     26 O16         -0.6060     0.0000     1.0520 o          1 3Z9      -0.646100
     27 N17         -0.6750    -0.0000    -1.1660 n          1 3Z9      -0.145800
     28 C25          2.9310     3.4940    -2.0140 ca         1 3Z9       0.127100
     29 C26          2.5020     3.5750    -0.7000 ca         1 3Z9      -0.181000
     30 O28          3.3830     4.6050    -2.6520 os         1 3Z9      -0.290900
     31 C29          3.3900     5.8240    -1.9070 c3         1 3Z9       0.241700
     32 O30          3.3140     2.1880    -3.9710 os         1 3Z9      -0.289900
     33 C31          3.2520     0.9010    -4.5910 c3         1 3Z9       0.239700
     34 C32         -1.9580     2.4030    -0.6370 ca         1 3Z9      -0.157000
     35 C35         -4.5340     2.3810     0.3800 ca         1 3Z9       0.027000
     36 C36         -4.0000     1.2360    -0.1840 ca         1 3Z9      -0.147500
     37 S37         -4.9610    -0.2390    -0.2540 sy         1 3Z9       0.876300
     38 C38         -4.1390    -1.3700     0.9010 c3         1 3Z9      -0.017900
     39 O39         -6.2330     0.1470     0.2450 o          1 3Z9      -0.595800
     40 O40         -4.8060    -0.6930    -1.5920 o          1 3Z9      -0.595800
     41 C41         -4.0300    -0.7060     2.2740 c3         1 3Z9       0.027400
     42 C42         -4.9560    -2.6580     1.0220 c3         1 3Z9       0.027400
     43 C44         -1.8480     5.5490     1.0560 c          1 3Z9       0.668100
     44 O45         -1.1920     6.7240     1.0700 os         1 3Z9      -0.431900
     45 O46         -2.5550     5.2370     1.9930 o          1 3Z9      -0.637000
     46 C47         -1.3740     7.5670     2.2390 c3         1 3Z9       0.288700
     47 H57          1.8670    -0.8850    -0.5110 h1         1 3Z9       0.054700
     48 H58         -2.5540    -0.8800    -0.8330 h1         1 3Z9       0.051700
     49 H60         -3.2940    -0.6770    -3.0250 hc         1 3Z9       0.057200
     50 H59         -2.6280     0.9730    -3.1930 hc         1 3Z9       0.057200
     51 H62         -1.0200    -0.2800    -4.4550 hc         1 3Z9       0.026200
     52 H61         -1.1460    -1.6960    -3.3670 hc         1 3Z9       0.026200
     53 H64          0.8240    -0.6150    -2.5180 h1         1 3Z9       0.028700
     54 H63          0.1600     1.0110    -2.8200 h1         1 3Z9       0.028700
     55 H65          2.4060     0.1900    -2.5410 ha         1 3Z9       0.133000
     56 H75         -4.1980     4.4310     0.8910 ha         1 3Z9       0.144000
     57 H67          1.7070     2.5080     0.9780 ha         1 3Z9       0.118000
     58 H48          3.1080    -0.1160     3.7790 ha         1 3Z9       0.132000
     59 H49          5.9290    -1.9240     0.1360 ha         1 3Z9       0.101000
     60 H50          3.6940    -1.0190    -0.3660 ha         1 3Z9       0.112000
     61 H51          7.2040    -1.2430     5.7660 hn         1 3Z9       0.182500
     62 H53          8.6590    -1.8100     4.0340 h1         1 3Z9       0.016200
     63 H52          7.9840    -0.2950     3.3480 h1         1 3Z9       0.016200
     64 H55          7.7780    -2.0170     1.6840 hc         1 3Z9       0.025200
     65 H54          7.0460    -3.1280     2.8540 hc         1 3Z9       0.025200
     66 H56          1.4250     0.3730     2.1130 hn         1 3Z9       0.320800
     67 H66          2.5280     4.5240    -0.1790 ha         1 3Z9       0.126000
     68 H68          3.9960     5.7000    -1.0180 h1         1 3Z9      -0.001633
     69 H69          2.3770     6.0790    -1.6210 h1         1 3Z9      -0.001633
     70 H70          3.8040     6.6180    -2.5170 h1         1 3Z9      -0.001633
     71 H72          2.2160     0.6060    -4.7050 h1         1 3Z9      -0.002300
     72 H71          3.7240     0.9470    -5.5650 h1         1 3Z9      -0.002300
     73 H73          3.7680     0.1770    -3.9730 h1         1 3Z9      -0.002300
     74 H74         -0.9530     2.4120    -1.0390 ha         1 3Z9       0.120000
     75 H76         -5.5420     2.3680     0.7790 ha         1 3Z9       0.134000
     76 H77         -3.1480    -1.6050     0.5330 h1         1 3Z9       0.082700
     77 H78         -3.5930    -1.4030     2.9790 hc         1 3Z9       0.016700
     78 H79         -3.4020     0.1740     2.2010 hc         1 3Z9       0.016700
     79 H80         -5.0170    -0.4170     2.6160 hc         1 3Z9       0.016700
     80 H83         -4.5460    -3.2730     1.8130 hc         1 3Z9       0.016700
     81 H81         -4.9160    -3.2010     0.0850 hc         1 3Z9       0.016700
     82 H82         -5.9860    -2.4120     1.2520 hc         1 3Z9       0.016700
     83 H84         -1.1140     4.9630    -0.7570 hn         1 3Z9       0.171500
     84 H85         -0.7810     8.4680     2.1300 h1         1 3Z9       0.002367
     85 H87         -1.0560     7.0300     3.1240 h1         1 3Z9       0.002367
     86 H86         -2.4200     7.8320     2.3330 h1         1 3Z9       0.002367
     87 N43         -1.7220     4.7200     0.0010 ns         1 3Z9      -0.015100
@<TRIPOS>BOND
     1     1     3 1   
     2     1    24 1   
     3     1    25 1   
     4     1    47 1   
     5     2     4 1   
     6     2     7 1   
     7     2    27 1   
     8     2    48 1   
     9     3    26 2   
    10     3    27 1   
    11     4     5 1   
    12     4    49 1   
    13     4    50 1   
    14     5     6 1   
    15     5    51 1   
    16     5    52 1   
    17     6    27 1   
    18     6    53 1   
    19     6    54 1   
    20     7    34 ar  
    21     7    36 ar  
    22     8     9 ar  
    23     8    25 ar  
    24     8    55 1   
    25     9    28 ar  
    26     9    32 1   
    27    10    12 ar  
    28    10    35 ar  
    29    10    56 1   
    30    11    25 ar  
    31    11    29 ar  
    32    11    57 1   
    33    12    34 ar  
    34    12    87 1   
    35    13    16 ar  
    36    13    18 ar  
    37    13    58 1   
    38    14    15 ar  
    39    14    17 ar  
    40    14    59 1   
    41    15    16 ar  
    42    15    60 1   
    43    16    24 1   
    44    17    18 ar  
    45    17    22 1   
    46    18    19 1   
    47    19    20 1   
    48    19    23 2   
    49    20    21 1   
    50    20    61 1   
    51    21    22 1   
    52    21    62 1   
    53    21    63 1   
    54    22    64 1   
    55    22    65 1   
    56    24    66 1   
    57    28    29 ar  
    58    28    30 1   
    59    29    67 1   
    60    30    31 1   
    61    31    68 1   
    62    31    69 1   
    63    31    70 1   
    64    32    33 1   
    65    33    71 1   
    66    33    72 1   
    67    33    73 1   
    68    34    74 1   
    69    35    36 ar  
    70    35    75 1   
    71    36    37 1   
    72    37    38 1   
    73    37    39 2   
    74    37    40 2   
    75    38    41 1   
    76    38    42 1   
    77    38    76 1   
    78    41    77 1   
    79    41    78 1   
    80    41    79 1   
    81    42    80 1   
    82    42    81 1   
    83    42    82 1   
    84    43    44 1   
    85    43    45 2   
    86    43    87 1   
    87    44    46 1   
    88    46    84 1   
    89    46    85 1   
    90    46    86 1   
    91    83    87 1   
@<TRIPOS>SUBSTRUCTURE
     1 3Z9         1 TEMP              0 ****  ****    0 ROOT
