@<TRIPOS>MOLECULE
molecule
   32    31     1     0     0
SMALL
bcc


@<TRIPOS>ATOM
      1 O6           0.0000     0.0000     0.0000 oh         1 3ZA      -0.374100
      2 C5           1.3370    -0.0010    -2.4720 c3         1 3ZA      -0.164400
      3 C3           1.5660    -0.0010    -4.9600 c3         1 3ZA      -0.236700
      4 O2           3.2680     0.9020    -9.0370 o          1 3ZA      -0.799300
      5 O1           3.0770    -1.2970    -9.1090 o          1 3ZA      -0.799300
      6 C7           0.7950     1.2860    -5.0960 c          1 3ZA       0.849600
      7 C8           2.0900    -0.0000    -1.1670 c          1 3ZA       0.687100
      8 C1           1.7860    -0.2540    -7.4370 c3         1 3ZA      -0.079500
      9 C2           2.5560    -0.1280    -6.1200 c3         1 3ZA      -0.275400
     10 C4           2.3320    -0.0020    -3.6360 c3         1 3ZA      -0.012400
     11 N1           1.0220    -1.5090    -7.4390 nz         1 3ZA      -0.822600
     12 C6           2.7570    -0.2550    -8.5880 c          1 3ZA       0.907600
     13 O5           3.3030    -0.0010    -1.1670 o          1 3ZA      -0.611100
     14 N2           1.4160     0.0000     0.0000 n          1 3ZA      -0.385300
     15 C9           2.1480     0.0000     1.2690 c3         1 3ZA       0.096300
     16 H1          -0.3140    -0.6060     0.6500 ho         1 3ZA       0.386000
     17 H2           0.7150     0.8840    -2.5300 hc         1 3ZA       0.096200
     18 H3           0.7140    -0.8850    -2.5290 hc         1 3ZA       0.096200
     19 H4           0.8780    -0.8380    -4.9800 hc         1 3ZA      -0.024300
     20 H6           1.1050     0.5830    -7.5390 hx         1 3ZA       0.127700
     21 H7           1.9290    -0.9780    -5.8820 hc         1 3ZA       0.203700
     22 H8           1.9810     0.7220    -6.4660 hc         1 3ZA       0.203700
     23 H9           2.9540    -0.8870    -3.5780 hc         1 3ZA       0.058700
     24 H10          2.9550     0.8820    -3.5780 hc         1 3ZA       0.058700
     25 H11          1.5800    -2.2390    -7.0420 hn         1 3ZA       0.425800
     26 H12          0.1890    -1.3930    -6.8960 hn         1 3ZA       0.425800
     27 H15          2.8180     0.8510     1.2990 h1         1 3ZA       0.040700
     28 H16          1.4460     0.0630     2.0910 h1         1 3ZA       0.040700
     29 H17          2.7230    -0.9140     1.3540 h1         1 3ZA       0.040700
     30 O4          -0.1350     1.6100    -4.1840 o          1 3ZA      -0.794300
     31 H13          0.7690    -1.7440    -8.3780 hn         1 3ZA       0.425800
     32 O3           1.0150     2.0270    -6.0250 o          1 3ZA      -0.794300
@<TRIPOS>BOND
     1     2    10 1
     2     2     7 1
     3    10     3 1
     4     7    13 2
     5     7    14 1
     6    14     1 1
     7    14    15 1
     8     3     9 1
     9     3     6 1
    10     9     8 1
    11     6    32 1
    12     6    30 1
    13     5    12 1
    14     8    12 1
    15     8    11 1
    16    12     4 1
    17     1    16 1
    18     2    17 1
    19     2    18 1
    20     3    19 1
    21     8    20 1
    22     9    21 1
    23     9    22 1
    24    10    23 1
    25    10    24 1
    26    11    25 1
    27    11    26 1
    28    15    27 1
    29    15    28 1
    30    15    29 1
    31    31    11 1
@<TRIPOS>SUBSTRUCTURE
     1 3ZA         1 TEMP              0 ****  ****    0 ROOT
