@<TRIPOS>MOLECULE
molecule
   18    19     1     0     0
SMALL
bcc


@<TRIPOS>ATOM
      1 C1           0.0000     0.0000     0.0000 ca         1 3ZB      -0.070200
      2 C2           1.4080     0.0000     0.0000 ca         1 3ZB      -0.091800
      3 N3          -0.4120     0.0010     1.3120 na         1 3ZB      -0.148400
      4 C4          -0.6840     0.0050    -1.2130 ca         1 3ZB      -0.131000
      5 C5           1.8220     0.0000     1.3540 cc         1 3ZB      -0.211200
      6 C6           2.1030     0.0000    -1.2170 ca         1 3ZB      -0.084000
      7 C7           0.7030    -0.0060     2.1280 cd         1 3ZB      -0.044300
      8 C8           0.0200     0.0040    -2.3960 ca         1 3ZB      -0.140000
      9 C9           1.4100    -0.0010    -2.3940 ca         1 3ZB      -0.008600
     10 C10          0.6850    -0.0080     3.5960 c          1 3ZB       0.893800
     11 Cl           2.2730    -0.0010    -3.9000 cl         1 3ZB      -0.162400
     12 O12         -0.4920    -0.0150     4.2550 o          1 3ZB      -0.823300
     13 O13          1.7290    -0.0040     4.2190 o          1 3ZB      -0.823300
     14 H14         -1.3620    -0.0020     1.6250 hn         1 3ZB       0.311700
     15 H15         -1.7670     0.0090    -1.2250 ha         1 3ZB       0.118000
     16 H16          2.8450    -0.0030     1.7090 ha         1 3ZB       0.161000
     17 H17          3.1860    -0.0040    -1.2240 ha         1 3ZB       0.132000
     18 H18         -0.5150     0.0030    -3.3390 ha         1 3ZB       0.123000
@<TRIPOS>BOND
     1    12    10 1
     2     5     2 1
     3     5     7 2
     4     6     2 ar
     5     6     9 ar
     6     2     1 ar
     7    10     7 1
     8    10    13 1
     9    11     9 1
    10     7     3 1
    11     9     8 ar
    12     1     3 1
    13     1     4 ar
    14     8     4 ar
    15     3    14 1
    16     4    15 1
    17     5    16 1
    18     6    17 1
    19     8    18 1
@<TRIPOS>SUBSTRUCTURE
     1 3ZB         1 TEMP              0 ****  ****    0 ROOT
