@<TRIPOS>MOLECULE
3ZB
   18    19     1     0     0
SMALL
bcc


@<TRIPOS>ATOM
      1 C1          0.0200   -0.0010   -0.0090 ca        1 3ZB     -0.066200
      2 C2          1.4780   -0.0100   -0.0230 ca        1 3ZB     -0.082800
      3 N3         -0.3870    0.0010    1.3190 na        1 3ZB     -0.165400
      4 C4         -0.7110    0.0040   -1.2060 ca        1 3ZB     -0.141000
      5 C5          1.8970   -0.0140    1.3540 cc        1 3ZB     -0.216200
      6 C6          2.1470   -0.0140   -1.2450 ca        1 3ZB     -0.091000
      7 C7          0.7430   -0.0070    2.1460 cd        1 3ZB     -0.068300
      8 C8         -0.0130    0.0000   -2.4040 ca        1 3ZB     -0.141000
      9 C9          1.3940   -0.0090   -2.4140 ca        1 3ZB     -0.019600
     10 C10         0.6050   -0.0070    3.6650 c         1 3ZB      0.927800
     11 CL          2.1990   -0.0130   -3.9280 cl        1 3ZB     -0.158400
     12 O12        -0.5680   -0.0000    4.1330 o         1 3ZB     -0.813800
     13 O13         1.6650   -0.0130    4.3400 o         1 3ZB     -0.813800
     14 H14        -1.3120    0.0060    1.6610 hn        1 3ZB      0.309700
     15 H15        -1.8080    0.0110   -1.1970 ha        1 3ZB      0.121000
     16 H16         2.9160   -0.0200    1.7260 ha        1 3ZB      0.161000
     17 H17         3.2460   -0.0210   -1.2740 ha        1 3ZB      0.135000
     18 H18        -0.5630    0.0040   -3.3550 ha        1 3ZB      0.123000
@<TRIPOS>BOND
     1    1    2 ar  
     2    1    3 1   
     3    1    4 ar  
     4    2    5 1   
     5    2    6 ar  
     6    3    7 1   
     7    3   14 1   
     8    4    8 ar  
     9    4   15 1   
    10    5    7 2   
    11    5   16 1   
    12    6    9 ar  
    13    6   17 1   
    14    7   10 1   
    15    8    9 ar  
    16    8   18 1   
    17    9   11 1   
    18   10   12 1   
    19   10   13 1   
@<TRIPOS>SUBSTRUCTURE
     1 3ZB         1 TEMP              0 ****  ****    0 ROOT
