@<TRIPOS>MOLECULE
molecule
   59    63     1     0     0
SMALL
bcc


@<TRIPOS>ATOM
      1 C10          0.0000     0.0000     0.0000 ca         1 3ZC      -0.001000
      2 C13         -2.7780     0.0110     0.0450 ca         1 3ZC       0.087100
      3 C17         -6.1780     1.1310     0.6660 ca         1 3ZC      -0.160300
      4 C20         -8.9320     1.2290     0.9830 ca         1 3ZC       0.123100
      5 C21         -8.1940     2.3270     1.3180 ca         1 3ZC      -0.240300
      6 C22         -6.7970     2.3020     1.1680 ca         1 3ZC       0.453600
      7 C24         -4.7460     3.3570     1.3570 ca         1 3ZC       0.481200
      8 C28        -12.3730     2.3120     1.7370 cx         1 3ZC      -0.013800
      9 C01          4.2450    -0.1290    -2.5320 c3         1 3ZC       0.101300
     10 C03          2.1640     0.0010    -1.2720 c          1 3ZC       0.678700
     11 O04          1.5670     0.1170    -2.3260 o          1 3ZC      -0.617100
     12 C05          1.4170     0.0000     0.0000 ca         1 3ZC      -0.130600
     13 C06          2.0960     0.0000     1.2100 ca         1 3ZC      -0.089000
     14 C07          1.4000     0.0000     2.4130 ca         1 3ZC      -0.130000
     15 C08          0.0380     0.0010     2.4390 ca         1 3ZC      -0.091000
     16 C09         -0.6910    -0.0000     1.2360 ca         1 3ZC      -0.037000
     17 C11         -0.7250     0.0050    -1.1990 ca         1 3ZC      -0.095000
     18 C12         -2.0860     0.0110    -1.1700 ca         1 3ZC      -0.137000
     19 C14         -2.0960     0.0010     1.2410 ca         1 3ZC      -0.145000
     20 O15         -4.1360     0.0110     0.0450 os         1 3ZC      -0.237200
     21 C16         -4.7730     1.1080     0.5220 ca         1 3ZC       0.191100
     22 C18         -6.9610     0.0180     0.3280 ca         1 3ZC      -0.143000
     23 C19         -8.3160     0.0720     0.4860 ca         1 3ZC       0.108100
     24 N23         -6.0520     3.3640     1.4920 nb         1 3ZC      -0.718000
     25 C25         -4.0660     2.2430     0.8810 ca         1 3ZC      -0.341300
     26 C27        -10.8530     2.4670     1.6400 c3         1 3ZC       0.165400
     27 C29        -13.1830     3.5410     2.1540 cx         1 3ZC      -0.086900
     28 C30        -13.0030     2.3760     3.1300 cx         1 3ZC      -0.086900
     29 N31        -12.9800     1.3990     0.7590 nz         1 3ZC      -0.766600
     30 O32         -9.0760    -1.0070     0.1580 os         1 3ZC      -0.342900
     31 C33         -8.3900    -2.1560    -0.3430 c3         1 3ZC       0.124700
     32 H1          -8.6830     3.2140     1.7010 ha         1 3ZC       0.151000
     33 H2          -4.1830     4.2390     1.6350 h4         1 3ZC       0.035100
     34 H3           5.3040    -0.2390    -2.3310 h1         1 3ZC       0.047033
     35 H4           4.0720     0.7980    -3.0650 h1         1 3ZC       0.047033
     36 H5           3.9040    -0.9620    -3.1360 h1         1 3ZC       0.047033
     37 H6           3.9920    -0.2600    -0.4030 hn         1 3ZC       0.317500
     38 H7           3.1790    -0.0000     1.2180 ha         1 3ZC       0.131000
     39 H8           1.9500     0.0000     3.3460 ha         1 3ZC       0.140000
     40 H9          -0.4840     0.0010     3.3880 ha         1 3ZC       0.138000
     41 H10         -0.2030     0.0060    -2.1480 ha         1 3ZC       0.208000
     42 H11         -2.6410     0.0190    -2.1010 ha         1 3ZC       0.147000
     43 H12         -2.6380     0.0000     2.1780 ha         1 3ZC       0.145000
     44 H13         -6.4940    -0.8810    -0.0570 ha         1 3ZC       0.170000
     45 H14         -2.9870     2.2670     0.7800 ha         1 3ZC       0.167000
     46 H15        -10.6160     3.2880     0.9750 h1         1 3ZC       0.079200
     47 H16        -10.4480     2.6700     2.6240 h1         1 3ZC       0.079200
     48 H17        -14.1650     3.6280     1.7050 hc         1 3ZC       0.112450
     49 H18        -12.6040     4.4300     2.3750 hc         1 3ZC       0.112450
     50 H19        -13.8750     1.7510     3.2770 hc         1 3ZC       0.112450
     51 H20        -12.3140     2.5530     3.9470 hc         1 3ZC       0.112450
     52 H21        -13.9760     1.4920     0.7900 hn         1 3ZC       0.460467
     53 H22        -12.7250     0.4570     0.9790 hn         1 3ZC       0.460467
     54 H24         -7.6880    -2.5100     0.4020 h1         1 3ZC       0.051033
     55 H25         -9.1070    -2.9370    -0.5630 h1         1 3ZC       0.051033
     56 H26         -7.8550    -1.8920    -1.2470 h1         1 3ZC       0.051033
     57 N02          3.5050    -0.1290    -1.2670 ns         1 3ZC      -0.577900
     58 H313       -12.6620     1.6360    -0.1600 hn         1 3ZC       0.460467
     59 O26        -10.2830     1.2590     1.1300 os         1 3ZC      -0.360900
@<TRIPOS>BOND
     1     9    57 1
     2    57    10 1
     3    11    10 2
     4    10    12 1
     5    12    13 ar
     6    12     1 ar
     7    13    14 ar
     8    17     1 ar
     9    17    18 ar
    10     1    16 ar
    11    14    15 ar
    12    18     2 ar
    13    16    15 ar
    14    16    19 ar
    15     2    19 ar
    16     2    20 1
    17    25     7 ar
    18    25    21 ar
    19     7    24 ar
    20    20    21 1
    21    21     3 ar
    22    24     6 ar
    23     3     6 ar
    24     3    22 ar
    25     6     5 ar
    26    22    23 ar
    27     5     4 ar
    28    23     4 ar
    29    23    30 1
    30     4    59 1
    31    31    30 1
    32    59    26 1
    33    26     8 1
    34     8    29 1
    35     8    27 1
    36     8    28 1
    37    27    28 1
    38     5    32 1
    39     7    33 1
    40     9    34 1
    41     9    35 1
    42     9    36 1
    43    57    37 1
    44    13    38 1
    45    14    39 1
    46    15    40 1
    47    17    41 1
    48    18    42 1
    49    19    43 1
    50    22    44 1
    51    25    45 1
    52    26    46 1
    53    26    47 1
    54    27    48 1
    55    27    49 1
    56    28    50 1
    57    28    51 1
    58    29    52 1
    59    29    53 1
    60    31    54 1
    61    31    55 1
    62    31    56 1
    63    58    29 1
@<TRIPOS>SUBSTRUCTURE
     1 3ZC         1 TEMP              0 ****  ****    0 ROOT
