@<TRIPOS>MOLECULE
3ZC
   59    63     1     0     0
SMALL
bcc


@<TRIPOS>ATOM
      1 C10          0.0000     0.0000     0.0000 ca         1 3ZC       0.006000
      2 C13         -2.7780     0.0110     0.0450 ca         1 3ZC       0.089100
      3 C17         -6.1780     1.1310     0.6660 ca         1 3ZC      -0.160300
      4 C20         -8.9320     1.2290     0.9830 ca         1 3ZC       0.127100
      5 C21         -8.1940     2.3270     1.3180 ca         1 3ZC      -0.230300
      6 C22         -6.7970     2.3020     1.1680 ca         1 3ZC       0.415600
      7 C24         -4.7460     3.3570     1.3570 ca         1 3ZC       0.474200
      8 C28        -12.3730     2.3120     1.7370 cx         1 3ZC      -0.251800
      9 C01          4.2450    -0.1290    -2.5320 c3         1 3ZC       0.084300
     10 C03          2.1640     0.0010    -1.2720 c          1 3ZC       0.600700
     11 O04          1.5670     0.1170    -2.3260 o          1 3ZC      -0.657100
     12 C05          1.4170     0.0000     0.0000 ca         1 3ZC      -0.134600
     13 C06          2.0960     0.0000     1.2100 ca         1 3ZC      -0.069000
     14 C07          1.4000     0.0000     2.4130 ca         1 3ZC      -0.103000
     15 C08          0.0380     0.0010     2.4390 ca         1 3ZC      -0.064000
     16 C09         -0.6910    -0.0000     1.2360 ca         1 3ZC      -0.036000
     17 C11         -0.7250     0.0050    -1.1990 ca         1 3ZC      -0.086000
     18 C12         -2.0860     0.0110    -1.1700 ca         1 3ZC      -0.114000
     19 C14         -2.0960     0.0010     1.2410 ca         1 3ZC      -0.128000
     20 O15         -4.1360     0.0110     0.0450 os         1 3ZC      -0.209200
     21 C16         -4.7730     1.1080     0.5220 ca         1 3ZC       0.199100
     22 C18         -6.9610     0.0180     0.3280 ca         1 3ZC      -0.130000
     23 C19         -8.3160     0.0720     0.4860 ca         1 3ZC       0.111100
     24 N23         -6.0520     3.3640     1.4920 nb         1 3ZC      -0.619000
     25 C25         -4.0660     2.2430     0.8810 ca         1 3ZC      -0.329300
     26 C27        -10.8530     2.4670     1.6400 c3         1 3ZC       0.246400
     27 C29        -13.1830     3.5410     2.1540 cx         1 3ZC       0.001600
     28 C30        -13.0030     2.3760     3.1300 cx         1 3ZC       0.001600
     29 N31        -12.9800     1.3990     0.7590 nz         1 3ZC       0.153400
     30 O32         -9.0760    -1.0070     0.1580 os         1 3ZC      -0.323900
     31 C33         -8.3900    -2.1560    -0.3430 c3         1 3ZC       0.243700
     32 H1          -8.6830     3.2140     1.7010 ha         1 3ZC       0.129000
     33 H2          -4.1830     4.2390     1.6350 h4         1 3ZC      -0.015900
     34 H3           5.3040    -0.2390    -2.3310 h1         1 3ZC       0.014033
     35 H4           4.0720     0.7980    -3.0650 h1         1 3ZC       0.014033
     36 H5           3.9040    -0.9620    -3.1360 h1         1 3ZC       0.014033
     37 H6           3.9920    -0.2600    -0.4030 hn         1 3ZC       0.177500
     38 H7           3.1790    -0.0000     1.2180 ha         1 3ZC       0.104000
     39 H8           1.9500     0.0000     3.3460 ha         1 3ZC       0.109000
     40 H9          -0.4840     0.0010     3.3880 ha         1 3ZC       0.108000
     41 H10         -0.2030     0.0060    -2.1480 ha         1 3ZC       0.188000
     42 H11         -2.6410     0.0190    -2.1010 ha         1 3ZC       0.117000
     43 H12         -2.6380     0.0000     2.1780 ha         1 3ZC       0.120000
     44 H13         -6.4940    -0.8810    -0.0570 ha         1 3ZC       0.147000
     45 H14         -2.9870     2.2670     0.7800 ha         1 3ZC       0.149000
     46 H15        -10.6160     3.2880     0.9750 h1         1 3ZC       0.040200
     47 H16        -10.4480     2.6700     2.6240 h1         1 3ZC       0.040200
     48 H17        -14.1650     3.6280     1.7050 hc         1 3ZC       0.072700
     49 H18        -12.6040     4.4300     2.3750 hc         1 3ZC       0.072700
     50 H19        -13.8750     1.7510     3.2770 hc         1 3ZC       0.072700
     51 H20        -12.3140     2.5530     3.9470 hc         1 3ZC       0.072700
     52 H21        -13.9760     1.4920     0.7900 hn         1 3ZC       0.220800
     53 H22        -12.7250     0.4570     0.9790 hn         1 3ZC       0.220800
     54 H24         -7.6880    -2.5100     0.4020 h1         1 3ZC       0.005700
     55 H25         -9.1070    -2.9370    -0.5630 h1         1 3ZC       0.005700
     56 H26         -7.8550    -1.8920    -1.2470 h1         1 3ZC       0.005700
     57 N02          3.5050    -0.1290    -1.2670 ns         1 3ZC      -0.183900
     58 H313       -12.6620     1.6360    -0.1600 hn         1 3ZC       0.220800
     59 O26        -10.2830     1.2590     1.1300 os         1 3ZC      -0.347900
@<TRIPOS>BOND
     1     1    12 ar  
     2     1    16 ar  
     3     1    17 ar  
     4     2    18 ar  
     5     2    19 ar  
     6     2    20 1   
     7     3     6 ar  
     8     3    21 ar  
     9     3    22 ar  
    10     4     5 ar  
    11     4    23 ar  
    12     4    59 1   
    13     5     6 ar  
    14     5    32 1   
    15     6    24 ar  
    16     7    24 ar  
    17     7    25 ar  
    18     7    33 1   
    19     8    26 1   
    20     8    27 1   
    21     8    28 1   
    22     8    29 1   
    23     9    34 1   
    24     9    35 1   
    25     9    36 1   
    26     9    57 1   
    27    10    11 2   
    28    10    12 1   
    29    10    57 1   
    30    12    13 ar  
    31    13    14 ar  
    32    13    38 1   
    33    14    15 ar  
    34    14    39 1   
    35    15    16 ar  
    36    15    40 1   
    37    16    19 ar  
    38    17    18 ar  
    39    17    41 1   
    40    18    42 1   
    41    19    43 1   
    42    20    21 1   
    43    21    25 ar  
    44    22    23 ar  
    45    22    44 1   
    46    23    30 1   
    47    25    45 1   
    48    26    46 1   
    49    26    47 1   
    50    26    59 1   
    51    27    28 1   
    52    27    48 1   
    53    27    49 1   
    54    28    50 1   
    55    28    51 1   
    56    29    52 1   
    57    29    53 1   
    58    29    58 1   
    59    30    31 1   
    60    31    54 1   
    61    31    55 1   
    62    31    56 1   
    63    37    57 1   
@<TRIPOS>SUBSTRUCTURE
     1 3ZC         1 TEMP              0 ****  ****    0 ROOT
