@<TRIPOS>MOLECULE
3ZD
   69    71     1     0     0
SMALL
bcc


@<TRIPOS>ATOM
      1 C1           0.0000     0.0000     0.0000 ca         1 3ZD      -0.053500
      2 C2           1.3840     0.0000     0.0000 ca         1 3ZD      -0.059300
      3 C3           2.1340     0.0000    -1.3070 c3         1 3ZD       0.101300
      4 N1           2.3770     1.3830    -1.7300 ns         1 3ZD      -0.205900
      5 C4           2.0810     0.0000     1.1950 ca         1 3ZD      -0.053500
      6 C5           1.4010    -0.0010     2.3950 ca         1 3ZD      -0.072500
      7 C6           0.0050    -0.0010     2.4010 ca         1 3ZD      -0.226900
      8 C7          -0.7320    -0.0030     3.6860 ce         1 3ZD       0.209800
      9 N2          -0.0780    -0.0020     4.8120 n2         1 3ZD      -0.483100
     10 C8          -0.6920    -0.0000     1.1940 ca         1 3ZD      -0.072500
     11 N3          -2.1090    -0.0030     3.6890 nz         1 3ZD       0.190400
     12 C9           3.0370     1.6290    -2.8790 c          1 3ZD       0.575100
     13 C10          3.2860     3.0510    -3.3140 c3         1 3ZD      -0.046300
     14 C11          1.9480     3.7720    -3.4930 c3         1 3ZD      -0.010100
     15 N4           4.0160     3.0510    -4.5840 ns         1 3ZD      -0.193900
     16 O1           3.4290     0.7080    -3.5630 o          1 3ZD      -0.634100
     17 C14          4.7790     4.1090    -4.9230 c          1 3ZD       0.556100
     18 C15          5.5290     4.1090    -6.2300 c3         1 3ZD       0.145500
     19 C16          4.5360     3.9840    -7.3880 c3         1 3ZD       0.021900
     20 N5           6.2780     5.3610    -6.3630 n7         1 3ZD      -0.566100
     21 O2           4.8620     5.0610    -4.1750 o          1 3ZD      -0.614100
     22 S1           7.8740     5.4220    -5.9250 s6         1 3ZD       0.952900
     23 C17          8.7070     4.3180    -7.0990 c3         1 3ZD       0.051700
     24 O4           8.2500     6.7730    -6.1580 o          1 3ZD      -0.571800
     25 O5           7.9000     4.8690    -4.6160 o          1 3ZD      -0.571800
     26 C18         12.8320     3.9700    -6.0460 ca         1 3ZD      -0.092000
     27 C19         11.9070     3.0890    -5.5180 ca         1 3ZD      -0.094500
     28 C20         10.5730     3.2020    -5.8580 ca         1 3ZD      -0.084500
     29 C21         10.1620     4.1950    -6.7280 ca         1 3ZD      -0.088300
     30 C22         11.0870     5.0770    -7.2570 ca         1 3ZD      -0.084500
     31 C23         12.4220     4.9640    -6.9150 ca         1 3ZD      -0.094500
     32 C24          6.6770     3.5920   -11.0630 ca         1 3ZD      -0.096000
     33 C25          6.2650     2.4630   -10.3800 ca         1 3ZD      -0.094000
     34 C26          5.5730     2.5900    -9.1900 ca         1 3ZD      -0.100000
     35 C27          5.2920     3.8460    -8.6850 ca         1 3ZD      -0.108300
     36 C28          5.7040     4.9740    -9.3680 ca         1 3ZD      -0.100000
     37 C29          6.3960     4.8480   -10.5580 ca         1 3ZD      -0.094000
     38 H1          -0.5410     0.0010    -0.9390 ha         1 3ZD       0.133000
     39 H8          -1.7760    -0.0000     1.1930 ha         1 3ZD       0.100000
     40 H31C         3.0800    -0.5110    -1.1800 h1         1 3ZD       0.041700
     41 H32C         1.5460    -0.5100    -2.0610 h1         1 3ZD       0.041700
     42 H4           3.1640    -0.0000     1.1880 ha         1 3ZD       0.133000
     43 HA           2.0450     2.1430    -1.1710 hn         1 3ZD       0.180500
     44 H5           1.9480    -0.0010     3.3290 ha         1 3ZD       0.100000
     45 H2           0.9230    -0.0010     4.8120 hn         1 3ZD       0.382400
     46 H31N        -2.4440    -0.8180     3.2140 hn         1 3ZD       0.222133
     47 H32N        -2.4410    -0.0080     4.6330 hn         1 3ZD       0.222133
     48 H10          3.8730     3.5610    -2.5600 h1         1 3ZD       0.072700
     49 H111         1.1370     3.0830    -3.2930 hc         1 3ZD       0.013700
     50 H112         1.8690     4.1380    -4.5100 hc         1 3ZD       0.013700
     51 H113         1.8920     4.6060    -2.8040 hc         1 3ZD       0.013700
     52 HB           3.9760     2.2510    -5.1840 hn         1 3ZD       0.198500
     53 H15          6.2170     3.2730    -6.2520 h1         1 3ZD       0.041700
     54 H161         3.9120     4.8690    -7.4260 hc         1 3ZD       0.027200
     55 H162         3.9140     3.1100    -7.2380 hc         1 3ZD       0.027200
     56 HC           5.8220     6.1840    -6.7050 hn         1 3ZD       0.359800
     57 H171         8.2420     3.3400    -7.0660 h1         1 3ZD       0.070200
     58 H172         8.6220     4.7250    -8.0990 h1         1 3ZD       0.070200
     59 H23         13.1500     5.6470    -7.3360 ha         1 3ZD       0.105500
     60 H20          9.8490     2.5080    -5.4480 ha         1 3ZD       0.110000
     61 H22         10.7710     5.8350    -7.9630 ha         1 3ZD       0.110000
     62 H24          7.2210     3.4920   -11.9950 ha         1 3ZD       0.108000
     63 H25          6.4800     1.4800   -10.7790 ha         1 3ZD       0.108500
     64 H29          6.7070     5.7210   -11.1180 ha         1 3ZD       0.108500
     65 H26          5.2330     1.7060    -8.6640 ha         1 3ZD       0.107000
     66 H28          5.4530     5.9580    -8.9900 ha         1 3ZD       0.107000
     67 H18         13.8810     3.8720    -5.7920 ha         1 3ZD       0.105000
     68 H33         -2.4450     0.8170     3.2240 hn         1 3ZD       0.222133
     69 H19         12.2280     2.3130    -4.8340 ha         1 3ZD       0.105500
@<TRIPOS>BOND
     1     1     2 ar  
     2     1    10 ar  
     3     1    38 1   
     4     2     3 1   
     5     2     5 ar  
     6     3     4 1   
     7     3    40 1   
     8     3    41 1   
     9     4    12 1   
    10     4    43 1   
    11     5     6 ar  
    12     5    42 1   
    13     6     7 ar  
    14     6    44 1   
    15     7     8 1   
    16     7    10 ar  
    17     8     9 2   
    18     8    11 1   
    19     9    45 1   
    20    10    39 1   
    21    11    46 1   
    22    11    47 1   
    23    11    68 1   
    24    12    13 1   
    25    12    16 2   
    26    13    14 1   
    27    13    15 1   
    28    13    48 1   
    29    14    49 1   
    30    14    50 1   
    31    14    51 1   
    32    15    17 1   
    33    15    52 1   
    34    17    18 1   
    35    17    21 2   
    36    18    19 1   
    37    18    20 1   
    38    18    53 1   
    39    19    35 1   
    40    19    54 1   
    41    19    55 1   
    42    20    22 1   
    43    20    56 1   
    44    22    23 1   
    45    22    24 2   
    46    22    25 2   
    47    23    29 1   
    48    23    57 1   
    49    23    58 1   
    50    26    27 ar  
    51    26    31 ar  
    52    26    67 1   
    53    27    28 ar  
    54    27    69 1   
    55    28    29 ar  
    56    28    60 1   
    57    29    30 ar  
    58    30    31 ar  
    59    30    61 1   
    60    31    59 1   
    61    32    33 ar  
    62    32    37 ar  
    63    32    62 1   
    64    33    34 ar  
    65    33    63 1   
    66    34    35 ar  
    67    34    65 1   
    68    35    36 ar  
    69    36    37 ar  
    70    36    66 1   
    71    37    64 1   
@<TRIPOS>SUBSTRUCTURE
     1 3ZD         1 TEMP              0 ****  ****    0 ROOT
