@<TRIPOS>MOLECULE
molecule
   69    71     1     0     0
SMALL
bcc


@<TRIPOS>ATOM
      1 C1           0.0000     0.0000     0.0000 ca         1 3ZD      -0.101000
      2 C2           1.3840     0.0000     0.0000 ca         1 3ZD      -0.052300
      3 C3           2.1340     0.0000    -1.3070 c3         1 3ZD       0.151300
      4 N1           2.3770     1.3830    -1.7300 ns         1 3ZD      -0.591900
      5 C4           2.0810     0.0000     1.1950 ca         1 3ZD      -0.101000
      6 C5           1.4010    -0.0010     2.3950 ca         1 3ZD      -0.085000
      7 C6           0.0050    -0.0010     2.4010 ca         1 3ZD      -0.193900
      8 C7          -0.7320    -0.0030     3.6860 ce         1 3ZD       0.541800
      9 N2          -0.0780    -0.0020     4.8120 n2         1 3ZD      -0.679100
     10 C8          -0.6920    -0.0000     1.1940 ca         1 3ZD      -0.085000
     11 N3          -2.1090    -0.0030     3.6890 nz         1 3ZD      -0.801600
     12 C9           3.0370     1.6290    -2.8790 c          1 3ZD       0.656100
     13 C10          3.2860     3.0510    -3.3140 c3         1 3ZD       0.049700
     14 C11          1.9480     3.7720    -3.4930 c3         1 3ZD      -0.106100
     15 N4           4.0160     3.0510    -4.5840 ns         1 3ZD      -0.578900
     16 O1           3.4290     0.7080    -3.5630 o          1 3ZD      -0.597100
     17 C14          4.7790     4.1090    -4.9230 c          1 3ZD       0.643100
     18 C15          5.5290     4.1090    -6.2300 c3         1 3ZD       0.188500
     19 C16          4.5360     3.9840    -7.3880 c3         1 3ZD      -0.041100
     20 N5           6.2780     5.3610    -6.3630 n7         1 3ZD      -0.888100
     21 O2           4.8620     5.0610    -4.1750 o          1 3ZD      -0.577100
     22 S1           7.8740     5.4220    -5.9250 s6         1 3ZD       1.327900
     23 C17          8.7070     4.3180    -7.0990 c3         1 3ZD      -0.168300
     24 O4           8.2500     6.7730    -6.1580 o          1 3ZD      -0.616300
     25 O5           7.9000     4.8690    -4.6160 o          1 3ZD      -0.616300
     26 C18         12.8320     3.9700    -6.0460 ca         1 3ZD      -0.116000
     27 C19         11.9070     3.0890    -5.5180 ca         1 3ZD      -0.124000
     28 C20         10.5730     3.2020    -5.8580 ca         1 3ZD      -0.108500
     29 C21         10.1620     4.1950    -6.7280 ca         1 3ZD      -0.092300
     30 C22         11.0870     5.0770    -7.2570 ca         1 3ZD      -0.108500
     31 C23         12.4220     4.9640    -6.9150 ca         1 3ZD      -0.124000
     32 C24          6.6770     3.5920   -11.0630 ca         1 3ZD      -0.123000
     33 C25          6.2650     2.4630   -10.3800 ca         1 3ZD      -0.123000
     34 C26          5.5730     2.5900    -9.1900 ca         1 3ZD      -0.124500
     35 C27          5.2920     3.8460    -8.6850 ca         1 3ZD      -0.099300
     36 C28          5.7040     4.9740    -9.3680 ca         1 3ZD      -0.124500
     37 C29          6.3960     4.8480   -10.5580 ca         1 3ZD      -0.123000
     38 H1          -0.5410     0.0010    -0.9390 ha         1 3ZD       0.167000
     39 H8          -1.7760    -0.0000     1.1930 ha         1 3ZD       0.140500
     40 H31C         1.5460    -0.5100    -2.0610 h1         1 3ZD       0.074200
     41 H32C         3.0800    -0.5110    -1.1800 h1         1 3ZD       0.074200
     42 H4           3.1640     0.0000     1.1880 ha         1 3ZD       0.167000
     43 HA           2.0730     2.1430    -1.1550 hn         1 3ZD       0.320500
     44 H5           1.9480    -0.0010     3.3290 ha         1 3ZD       0.140500
     45 H2          -0.5740    -0.0020     5.6810 hn         1 3ZD       0.435400
     46 H31N        -2.4410    -0.0030     4.6340 hn         1 3ZD       0.465800
     47 H32N        -2.4440    -0.8200     3.2180 hn         1 3ZD       0.465800
     48 H10          3.8730     3.5610    -2.5600 h1         1 3ZD       0.101700
     49 H111         1.1770     3.0480    -3.7270 hc         1 3ZD       0.048367
     50 H112         2.0300     4.4870    -4.3030 hc         1 3ZD       0.048367
     51 H113         1.6920     4.2900    -2.5780 hc         1 3ZD       0.048367
     52 HB           3.9760     2.2510    -5.1840 hn         1 3ZD       0.334500
     53 H15          6.2160     3.2730    -6.2520 h1         1 3ZD       0.075700
     54 H161         3.9120     4.8690    -7.4260 hc         1 3ZD       0.060200
     55 H162         3.9140     3.1100    -7.2380 hc         1 3ZD       0.060200
     56 HC           5.8130     6.1920    -6.6730 hn         1 3ZD       0.463800
     57 H171         8.2420     3.3400    -7.0660 h1         1 3ZD       0.102700
     58 H172         8.6220     4.7250    -8.0990 h1         1 3ZD       0.102700
     59 H23         13.1530     5.6490    -7.3270 ha         1 3ZD       0.135500
     60 H20          9.8500     2.5030    -5.4550 ha         1 3ZD       0.136000
     61 H22         10.7720     5.8300    -7.9690 ha         1 3ZD       0.136000
     62 H24          7.2150     3.4920   -11.9980 ha         1 3ZD       0.137000
     63 H25          6.4790     1.4800   -10.7800 ha         1 3ZD       0.137000
     64 H29          6.7220     5.7160   -11.1170 ha         1 3ZD       0.137000
     65 H26          5.2230     1.7070    -8.6700 ha         1 3ZD       0.130000
     66 H28          5.4390     5.9580    -8.9980 ha         1 3ZD       0.130000
     67 H18         13.8770     3.8850    -5.7750 ha         1 3ZD       0.134000
     68 H33         -2.4440     0.8150     3.2190 hn         1 3ZD       0.465800
     69 H19         12.2280     2.3130    -4.8340 ha         1 3ZD       0.135500
@<TRIPOS>BOND
     1     1     2 ar
     2     1    10 ar
     3     2     3 1
     4     2     5 ar
     5     3     4 1
     6     4    12 1
     7     5     6 ar
     8     6     7 ar
     9     7     8 1
    10     7    10 ar
    11     8     9 2
    12     8    11 1
    13    12    13 1
    14    12    16 2
    15    13    14 1
    16    13    15 1
    17    15    17 1
    18    17    18 1
    19    17    21 2
    20    18    19 1
    21    18    20 1
    22    19    35 1
    23    20    22 1
    24    22    23 1
    25    22    24 2
    26    22    25 2
    27    23    29 1
    28    26    27 ar
    29    26    31 ar
    30    27    28 ar
    31    28    29 ar
    32    29    30 ar
    33    30    31 ar
    34    32    33 ar
    35    32    37 ar
    36    33    34 ar
    37    34    35 ar
    38    35    36 ar
    39    36    37 ar
    40     1    38 1
    41    10    39 1
    42     3    40 1
    43     3    41 1
    44     5    42 1
    45     4    43 1
    46     6    44 1
    47     9    45 1
    48    11    46 1
    49    11    47 1
    50    13    48 1
    51    14    49 1
    52    14    50 1
    53    14    51 1
    54    15    52 1
    55    18    53 1
    56    19    54 1
    57    19    55 1
    58    20    56 1
    59    23    57 1
    60    23    58 1
    61    26    67 1
    62    27    69 1
    63    31    59 1
    64    28    60 1
    65    30    61 1
    66    32    62 1
    67    33    63 1
    68    37    64 1
    69    34    65 1
    70    36    66 1
    71    68    11 1
@<TRIPOS>SUBSTRUCTURE
     1 3ZD         1 TEMP              0 ****  ****    0 ROOT
