@<TRIPOS>MOLECULE
molecule
   38    40     1     0     0
SMALL
bcc


@<TRIPOS>ATOM
      1 C4           0.0000     0.0000     0.0000 cc         1 3ZE       0.049800
      2 C5           1.3990     0.0000     0.0000 cd         1 3ZE       0.224800
      3 C6           2.0770     0.0000     1.2420 c          1 3ZE       0.649000
      4 C8           0.7580    -0.0090    -2.0700 cc         1 3ZE       0.478400
      5 N1           1.3390     0.0000     2.3750 ns         1 3ZE      -0.476400
      6 N3          -0.6630    -0.0010     1.1620 nc         1 3ZE      -0.603100
      7 OAF         -5.7800     0.7000    -7.8110 o          1 3ZE      -0.737167
      8 PAX         -4.5700     1.1770    -6.8610 p5         1 3ZE       1.031700
      9 OAG         -3.2850     0.2430    -7.1180 o          1 3ZE      -0.737167
     10 OAD         -4.2290     2.5830    -7.1790 o          1 3ZE      -0.737167
     11 CAI         -5.0710     1.0540    -5.1130 c3         1 3ZE      -0.309600
     12 CAO         -3.9840     1.6210    -4.2370 c          1 3ZE       0.719100
     13 OAB         -3.8870     2.8210    -4.0930 o          1 3ZE      -0.608100
     14 NAV         -3.1210     0.7950    -3.6150 n          1 3ZE      -0.500800
     15 CAK         -2.0190     1.2130    -2.7290 c3         1 3ZE       0.106000
     16 CAJ         -3.1250    -0.6730    -3.7010 c3         1 3ZE       0.087000
     17 CAT         -1.9790    -1.1890    -2.8070 c3         1 3ZE       0.082100
     18 OAE         -0.8040    -1.4340    -3.5820 oh         1 3ZE      -0.552800
     19 CAU         -1.7550    -0.0140    -1.8200 c3         1 3ZE      -0.003000
     20 N9          -0.3790    -0.0060    -1.3150 na         1 3ZE      -0.167900
     21 C2          -0.0230    -0.0010     2.3100 cd         1 3ZE       0.272800
     22 O6           3.2950     0.0000     1.2900 o          1 3ZE      -0.613500
     23 N7           1.8020    -0.0000    -1.2940 nd         1 3ZE      -0.640000
     24 H1           0.7860    -0.0160    -3.1530 h5         1 3ZE       0.116100
     25 H2           1.7950     0.0020     3.2660 hn         1 3ZE       0.313500
     26 H3          -1.7230     0.0020     3.2630 hn         1 3ZE       0.434467
     27 H4          -0.5170     0.8140     4.0090 hn         1 3ZE       0.434467
     28 H7          -5.2360     0.0150    -4.8570 hc         1 3ZE       0.060200
     29 H8          -5.9870     1.6130    -4.9600 hc         1 3ZE       0.060200
     30 H9          -1.1360     1.4460    -3.3110 h1         1 3ZE       0.063200
     31 H10         -2.3210     2.0640    -2.1310 h1         1 3ZE       0.063200
     32 H11         -4.0730    -1.0590    -3.3440 h1         1 3ZE       0.077700
     33 H12         -2.9580    -0.9810    -4.7260 h1         1 3ZE       0.077700
     34 H13         -2.2860    -2.0800    -2.2720 h1         1 3ZE       0.033700
     35 H14         -1.0540    -2.2200    -3.1250 ho         1 3ZE       0.406000
     36 H15         -2.4720    -0.0520    -1.0090 h1         1 3ZE       0.085700
     37 N2          -0.7450    -0.0010     3.4760 nz         1 3ZE      -0.676600
     38 H23         -0.5210    -0.8190     4.0070 hn         1 3ZE       0.434467
@<TRIPOS>BOND
     1    10     8 1
     2     7     8 1
     3     8     9 1
     4     8    11 1
     5    13    12 2
     6    11    12 1
     7    12    14 1
     8    14    16 1
     9    14    15 1
    10    16    17 1
    11    15    19 1
    12    18    17 1
    13    17    19 1
    14    19    20 1
    15     4    20 1
    16     4    23 2
    17    20     1 1
    18    23     2 1
    19     1     2 2
    20     1     6 1
    21     2     3 1
    22     6    21 2
    23     3    22 2
    24     3     5 1
    25    21     5 1
    26    21    37 1
    27     4    24 1
    28     5    25 1
    29    37    26 1
    30    37    27 1
    31    11    28 1
    32    11    29 1
    33    15    30 1
    34    15    31 1
    35    16    32 1
    36    16    33 1
    37    17    34 1
    38    18    35 1
    39    19    36 1
    40    38    37 1
@<TRIPOS>SUBSTRUCTURE
     1 3ZE         1 TEMP              0 ****  ****    0 ROOT
