@<TRIPOS>MOLECULE
molecule
   37    39     1     0     0
SMALL
bcc


@<TRIPOS>ATOM
      1 N1           0.0000     0.0000     0.0000 ns         1 3ZF      -0.475400
      2 C2           1.3630     0.0000     0.0000 cc         1 3ZF       0.293800
      3 N2           2.0290     0.0010    -1.2000 nz         1 3ZF      -0.682600
      4 N3           2.0580     0.0000     1.1150 nd         1 3ZF      -0.591100
      5 C4           1.4510    -0.0010     2.3080 cd         1 3ZF       0.067800
      6 C5           0.0530    -0.0010     2.3740 cc         1 3ZF       0.214800
      7 C6          -0.6820    -0.0010     1.1660 c          1 3ZF       0.650000
      8 O6          -1.9020    -0.0010     1.1770 o          1 3ZF      -0.616500
      9 N7          -0.2870    -0.0010     3.6860 nc         1 3ZF      -0.634000
     10 C8           0.7930    -0.0020     4.4110 cd         1 3ZF       0.441400
     11 N9           1.8920    -0.0010     3.6040 na         1 3ZF      -0.157900
     12 OAB          5.4500    -2.7330     6.4130 o          1 3ZF      -0.610100
     13 OAD          9.4990    -0.5060     7.1470 o          1 3ZF      -0.747500
     14 OAE          8.1020    -0.0840     4.9590 o          1 3ZF      -0.747500
     15 OAF          8.4940    -2.4170     5.8390 o          1 3ZF      -0.747500
     16 CAH          3.5950     1.2340     4.9300 c3         1 3ZF      -0.109400
     17 CAI          4.7670     0.7480     5.8080 c3         1 3ZF       0.099000
     18 CAJ          6.7280    -0.9350     7.2520 c3         1 3ZF      -0.310600
     19 CAK          3.5630    -1.1660     5.0260 c3         1 3ZF       0.102000
     20 CAT          3.2910    -0.0020     4.0420 c3         1 3ZF       0.015000
     21 NAU          4.7180    -0.7220     5.8260 n          1 3ZF      -0.504800
     22 PAW          8.2560    -1.0190     6.2610 p5         1 3ZF       1.036700
     23 HN2          1.7750     0.8170    -1.7220 hn         1 3ZF       0.440133
     24 HN2A         1.7810    -0.8170    -1.7200 hn         1 3ZF       0.440133
     25 HN1         -0.4980     0.0010    -0.8680 hn         1 3ZF       0.315500
     26 H8           0.8150    -0.0020     5.4940 h5         1 3ZF       0.085100
     27 HAH          3.8990     2.0760     4.3200 hc         1 3ZF       0.049700
     28 HAHA         2.7370     1.4850     5.5420 hc         1 3ZF       0.049700
     29 HAI          4.6560     1.1310     6.8150 h1         1 3ZF       0.069200
     30 HAIA         5.7070     1.0790     5.3830 h1         1 3ZF       0.069200
     31 HAJ          6.8630    -1.4930     8.1710 hc         1 3ZF       0.062200
     32 HAJA         6.5060     0.0990     7.4870 hc         1 3ZF       0.062200
     33 HAK          2.7030    -1.3270     5.6650 h1         1 3ZF       0.052200
     34 HAKA         3.8090    -2.0690     4.4810 h1         1 3ZF       0.052200
     35 HAT          3.9680    -0.0460     3.1980 h1         1 3ZF       0.109700
     36 CAO          5.5870    -1.5290     6.4670 c          1 3ZF       0.717100
     37 H23          3.0160     0.0040    -1.0340 hn         1 3ZF       0.440133
@<TRIPOS>BOND
     1     1     7 1
     2     1     2 1
     3     3     2 1
     4     2     4 2
     5     3    23 1
     6     3    24 1
     7     4     5 1
     8     1    25 1
     9     6     5 2
    10     5    11 1
    11     7     6 1
    12     6     9 1
    13     8     7 2
    14     9    10 2
    15    10    11 1
    16    10    26 1
    17    11    20 1
    18    36    12 2
    19    13    22 1
    20    22    14 1
    21    15    22 1
    22    20    16 1
    23    16    17 1
    24    16    27 1
    25    16    28 1
    26    17    21 1
    27    17    29 1
    28    17    30 1
    29    36    18 1
    30    18    22 1
    31    18    31 1
    32    18    32 1
    33    20    19 1
    34    19    21 1
    35    19    33 1
    36    19    34 1
    37    21    36 1
    38    20    35 1
    39    37     3 1
@<TRIPOS>SUBSTRUCTURE
     1 3ZF         1 TEMP              0 ****  ****    0 ROOT
