@<TRIPOS>MOLECULE
3ZG
   40    42     1     0     0
SMALL
bcc


@<TRIPOS>ATOM
      1 C4           0.0000     0.0000     0.0000 ca         1 3ZG      -0.131000
      2 C5           1.3590     0.0000     0.0000 ca         1 3ZG      -0.052000
      3 C6           2.0560     0.0000     1.2200 ca         1 3ZG      -0.179300
      4 C7           3.4590     0.0000     1.2740 ca         1 3ZG       0.429200
      5 C8           3.4170     0.0010     3.5910 ca         1 3ZG       0.396200
      6 N2           4.0690     0.0020     2.4360 nb         1 3ZG      -0.592000
      7 C9           2.0560     0.0010     3.6470 ca         1 3ZG      -0.204300
      8 C10          1.3300     0.0000     2.4410 ca         1 3ZG       0.004000
      9 C11         -0.0700     0.0010     2.4140 ca         1 3ZG      -0.101000
     10 C12         -8.7550    -1.3530     3.7690 c3         1 3ZG       0.051000
     11 N3          -7.2930    -1.5300     3.8380 n          1 3ZG      -0.152800
     12 C13         -9.2550    -1.6170     5.2110 c3         1 3ZG      -0.033400
     13 C14         -8.3120    -2.7640     5.6630 c3         1 3ZG      -0.033400
     14 C15         -6.9770    -2.4030     4.9780 c3         1 3ZG       0.051000
     15 O1          -2.2380    -1.3080     2.9520 o          1 3ZG      -0.702100
     16 C2          -2.8190    -0.6410     2.1190 c          1 3ZG       0.565100
     17 N           -4.1630    -0.5460     2.1480 ns         1 3ZG      -0.206900
     18 C1          -4.9250    -1.2500     3.1840 c3         1 3ZG      -0.004000
     19 C           -6.3950    -0.9830     2.9950 c          1 3ZG       0.593100
     20 O           -6.7710    -0.2750     2.0840 o          1 3ZG      -0.660100
     21 C3          -0.7220     0.0010     1.1990 ca         1 3ZG      -0.062400
     22 H1          -0.5330    -0.0010    -0.9430 ha         1 3ZG       0.104000
     23 H2           1.9030    -0.0010    -0.9370 ha         1 3ZG       0.107000
     24 H3          -2.6010     0.4790     0.4260 hn         1 3ZG       0.165500
     25 H4           4.0370     0.0010     0.3580 h4         1 3ZG      -0.020900
     26 H5           3.9820     0.0020     4.5150 h4         1 3ZG      -0.023900
     27 H6           1.5430     0.0000     4.6010 ha         1 3ZG       0.118000
     28 H7          -0.6350     0.0010     3.3380 ha         1 3ZG       0.149000
     29 H9          -9.1880    -2.0720     3.0840 h1         1 3ZG       0.023450
     30 H10         -9.1200    -0.7400     5.8330 hc         1 3ZG       0.026450
     31 H11        -10.2880    -1.9450     5.2080 hc         1 3ZG       0.026450
     32 H12         -8.2000    -2.7640     6.7400 hc         1 3ZG       0.026450
     33 H13         -8.6770    -3.7200     5.3070 hc         1 3ZG       0.026450
     34 H14         -6.3360    -1.8790     5.6760 h1         1 3ZG       0.023450
     35 H15         -6.4900    -3.3040     4.6260 h1         1 3ZG       0.023450
     36 H16         -4.6430    -0.0160     1.4470 hn         1 3ZG       0.198500
     37 H17         -4.6160    -0.8980     4.1610 h1         1 3ZG       0.039700
     38 H18         -4.7390    -2.3140     3.1090 h1         1 3ZG       0.039700
     39 N1          -2.1200     0.0060     1.1650 ns         1 3ZG      -0.051100
     40 H8          -8.9970    -0.3420     3.4670 h1         1 3ZG       0.023450
@<TRIPOS>BOND
     1     1     2 ar  
     2     1    21 ar  
     3     1    22 1   
     4     2     3 ar  
     5     2    23 1   
     6     3     4 ar  
     7     3     8 ar  
     8     4     6 ar  
     9     4    25 1   
    10     5     6 ar  
    11     5     7 ar  
    12     5    26 1   
    13     7     8 ar  
    14     7    27 1   
    15     8     9 ar  
    16     9    21 ar  
    17     9    28 1   
    18    10    11 1   
    19    10    12 1   
    20    10    29 1   
    21    10    40 1   
    22    11    14 1   
    23    11    19 1   
    24    12    13 1   
    25    12    30 1   
    26    12    31 1   
    27    13    14 1   
    28    13    32 1   
    29    13    33 1   
    30    14    34 1   
    31    14    35 1   
    32    15    16 2   
    33    16    17 1   
    34    16    39 1   
    35    17    18 1   
    36    17    36 1   
    37    18    19 1   
    38    18    37 1   
    39    18    38 1   
    40    19    20 2   
    41    21    39 1   
    42    24    39 1   
@<TRIPOS>SUBSTRUCTURE
     1 3ZG         1 TEMP              0 ****  ****    0 ROOT
