@<TRIPOS>MOLECULE
molecule
   40    42     1     0     0
SMALL
bcc


@<TRIPOS>ATOM
      1 C4           0.0000     0.0000     0.0000 ca         1 3ZG      -0.157000
      2 C5           1.3590     0.0000     0.0000 ca         1 3ZG      -0.085000
      3 C6           2.0560     0.0000     1.2200 ca         1 3ZG      -0.186300
      4 C7           3.4590     0.0000     1.2740 ca         1 3ZG       0.448200
      5 C8           3.4170     0.0010     3.5910 ca         1 3ZG       0.413200
      6 N2           4.0690     0.0020     2.4360 nb         1 3ZG      -0.701000
      7 C9           2.0560     0.0010     3.6470 ca         1 3ZG      -0.236300
      8 C10          1.3300     0.0000     2.4410 ca         1 3ZG       0.005000
      9 C11         -0.0700     0.0010     2.4140 ca         1 3ZG      -0.129000
     10 C12         -8.7550    -1.3530     3.7690 c3         1 3ZG       0.097500
     11 N3          -7.2930    -1.5300     3.8380 n          1 3ZG      -0.492800
     12 C13         -9.2550    -1.6170     5.2110 c3         1 3ZG      -0.096900
     13 C14         -8.3120    -2.7640     5.6630 c3         1 3ZG      -0.096900
     14 C15         -6.9770    -2.4030     4.9780 c3         1 3ZG       0.097500
     15 O1          -2.2380    -1.3080     2.9520 o          1 3ZG      -0.651100
     16 C2          -2.8190    -0.6410     2.1190 c          1 3ZG       0.784100
     17 N           -4.1630    -0.5460     2.1480 ns         1 3ZG      -0.592900
     18 C1          -4.9250    -1.2500     3.1840 c3         1 3ZG       0.061000
     19 C           -6.3950    -0.9830     2.9950 c          1 3ZG       0.668100
     20 O           -6.7710    -0.2750     2.0840 o          1 3ZG      -0.617100
     21 C3          -0.7220     0.0010     1.1990 ca         1 3ZG       0.086600
     22 H1          -0.5330    -0.0010    -0.9430 ha         1 3ZG       0.131000
     23 H2           1.9030    -0.0010    -0.9370 ha         1 3ZG       0.136000
     24 H3          -2.6010     0.4790     0.4260 hn         1 3ZG       0.323500
     25 H4           4.0370     0.0010     0.3580 h4         1 3ZG       0.023100
     26 H5           3.9820     0.0020     4.5150 h4         1 3ZG       0.019100
     27 H6           1.5430     0.0000     4.6010 ha         1 3ZG       0.143000
     28 H7          -0.6350     0.0010     3.3380 ha         1 3ZG       0.170000
     29 H9          -9.1880    -2.0720     3.0840 h1         1 3ZG       0.052950
     30 H10         -9.1200    -0.7400     5.8330 hc         1 3ZG       0.058450
     31 H11        -10.2880    -1.9450     5.2080 hc         1 3ZG       0.058450
     32 H12         -8.2000    -2.7640     6.7400 hc         1 3ZG       0.058450
     33 H13         -8.6770    -3.7200     5.3070 hc         1 3ZG       0.058450
     34 H14         -6.3360    -1.8790     5.6760 h1         1 3ZG       0.052950
     35 H15         -6.4900    -3.3040     4.6260 h1         1 3ZG       0.052950
     36 H16         -4.6430    -0.0160     1.4470 hn         1 3ZG       0.335500
     37 H17         -4.6160    -0.8980     4.1610 h1         1 3ZG       0.072700
     38 H18         -4.7390    -2.3140     3.1090 h1         1 3ZG       0.072700
     39 N1          -2.1200     0.0060     1.1650 ns         1 3ZG      -0.490100
     40 H8          -8.9970    -0.3420     3.4670 h1         1 3ZG       0.052950
@<TRIPOS>BOND
     1     6     5 ar  
     2     6     4 ar  
     3     5     7 ar  
     4     4     3 ar  
     5     7     8 ar  
     6     3     8 ar  
     7     3     2 ar  
     8     8     9 ar  
     9     2     1 ar  
    10     9    21 ar  
    11     1    21 ar  
    12    21    39 1   
    13    15    16 2   
    14    39    16 1   
    15    16    17 1   
    16    17    18 1   
    17    18    19 1   
    18    20    19 2   
    19    19    11 1   
    20    11    10 1   
    21    11    14 1   
    22    10    12 1   
    23    12    13 1   
    24    14    13 1   
    25     1    22 1   
    26     2    23 1   
    27    39    24 1   
    28     4    25 1   
    29     5    26 1   
    30     7    27 1   
    31     9    28 1   
    32    10    40 1   
    33    10    29 1   
    34    12    30 1   
    35    12    31 1   
    36    13    32 1   
    37    13    33 1   
    38    14    34 1   
    39    14    35 1   
    40    17    36 1   
    41    18    37 1   
    42    18    38 1   
@<TRIPOS>SUBSTRUCTURE
     1 3ZG         1 TEMP              0 ****  ****    0 ROOT
