@<TRIPOS>MOLECULE
3ZJ
   76    78     1     0     0
SMALL
bcc


@<TRIPOS>ATOM
      1 C1           0.0000     0.0000     0.0000 c          1 3ZJ       0.616700
      2 C3           2.0810     0.3090     1.2300 c3         1 3ZJ      -0.012000
      3 C11          6.2050     0.2040     5.0650 c3         1 3ZJ       0.050700
      4 C13         -2.1190     0.7930     3.5980 ca         1 3ZJ       0.136100
      5 C14         -0.2910    -0.2600     2.4590 ca         1 3ZJ      -0.117000
      6 C15          2.0790    -0.3100    -1.2310 c3         1 3ZJ       0.020700
      7 C16         -0.9810     0.0000     3.6240 ca         1 3ZJ      -0.180000
      8 C17          2.5720    -2.1330     1.6070 c3         1 3ZJ       0.111800
      9 C18          4.1770    -1.8790     3.3260 c3         1 3ZJ       0.108800
     10 C20          6.7880     1.0430     6.1720 ca         1 3ZJ      -0.090300
     11 C22         -5.3680     3.4520     1.2730 c3         1 3ZJ      -0.042400
     12 C24         -4.1000     2.6140     1.1000 c3         1 3ZJ       0.202400
     13 C25         -5.8050     4.0030    -0.0860 c3         1 3ZJ       0.217400
     14 C26          3.2130     0.7010    -1.4180 c3         1 3ZJ      -0.035600
     15 C27          2.6650    -1.7190    -1.1360 c3         1 3ZJ      -0.035600
     16 C28          5.9550     1.6210     7.1120 ca         1 3ZJ      -0.084000
     17 C29          8.1560     1.2280     6.2530 ca         1 3ZJ      -0.084000
     18 C30         -2.2780     0.4620     5.9460 c3         1 3ZJ       0.241700
     19 N2           1.3480     0.0000     0.0000 n          1 3ZJ      -0.144800
     20 C4           3.1840    -0.7300     1.4400 c3         1 3ZJ      -0.104700
     21 N5           5.2060     0.2250     2.5090 n7         1 3ZJ      -0.587100
     22 C6          -0.7380     0.2760     1.2490 ca         1 3ZJ      -0.148600
     23 C7           3.9340    -0.4550     2.7650 c3         1 3ZJ       0.198500
     24 C8          -1.8870     1.0710     1.2220 ca         1 3ZJ      -0.122000
     25 C9          -2.5730     1.3270     2.3930 ca         1 3ZJ       0.115100
     26 N10          2.9330    -2.6040     2.9620 n7         1 3ZJ      -0.579200
     27 O12         -0.6090    -0.2230    -1.0280 o          1 3ZJ      -0.650100
     28 O19         -3.6920     2.1000     2.3700 os         1 3ZJ      -0.289900
     29 O23         -6.9890     4.7860     0.0760 os         1 3ZJ      -0.416600
     30 C31         -7.4830     5.3490    -1.1410 c3         1 3ZJ       0.256700
     31 C32          6.4900     2.3910     8.1280 ca         1 3ZJ      -0.095000
     32 C33          8.6900     1.9970     7.2690 ca         1 3ZJ      -0.095000
     33 C34          7.8570     2.5820     8.2050 ca         1 3ZJ      -0.093000
     34 S35          5.8320     1.2620     3.6380 s6         1 3ZJ       0.953900
     35 O36          4.7590     2.1440     3.9380 o          1 3ZJ      -0.575800
     36 O37          7.0310     1.7420     3.0460 o          1 3ZJ      -0.575800
     37 H1           2.5240     1.2940     1.1480 h1         1 3ZJ       0.061200
     38 H2           1.4000     0.2880     2.0720 h1         1 3ZJ       0.061200
     39 H3           6.9180    -0.5570     4.7740 h1         1 3ZJ       0.069700
     40 H4           5.2940    -0.2690     5.4120 h1         1 3ZJ       0.069700
     41 H5           0.5980    -0.8790     2.4820 ha         1 3ZJ       0.142000
     42 H6           1.3810    -0.2260    -2.0550 h1         1 3ZJ       0.071700
     43 H7          -0.6320    -0.4150     4.5620 ha         1 3ZJ       0.126000
     44 H8           2.9820    -2.8050     0.8630 h1         1 3ZJ       0.032200
     45 H9           1.4950    -2.0790     1.5110 h1         1 3ZJ       0.032200
     46 H10          4.2990    -1.8480     4.4020 h1         1 3ZJ       0.015200
     47 H11          5.0370    -2.3350     2.8500 h1         1 3ZJ       0.015200
     48 H12         -6.1580     2.8330     1.6820 hc         1 3ZJ       0.033200
     49 H13         -5.1680     4.2750     1.9490 hc         1 3ZJ       0.033200
     50 H14         -4.3000     1.7910     0.4250 h1         1 3ZJ       0.003200
     51 H15         -3.3110     3.2330     0.6910 h1         1 3ZJ       0.003200
     52 H16         -6.0060     3.1800    -0.7610 h1         1 3ZJ      -0.009800
     53 H17         -5.0160     4.6220    -0.4950 h1         1 3ZJ      -0.009800
     54 H18          4.0900     0.3640    -0.8800 hc         1 3ZJ       0.016533
     55 H19          2.9030     1.6660    -1.0360 hc         1 3ZJ       0.016533
     56 H20          3.4470     0.7890    -2.4720 hc         1 3ZJ       0.016533
     57 H21          1.9910    -2.3530    -0.5720 hc         1 3ZJ       0.016533
     58 H22          3.6250    -1.6790    -0.6370 hc         1 3ZJ       0.016533
     59 H23          2.7930    -2.1250    -2.1320 hc         1 3ZJ       0.016533
     60 H24          4.8840     1.4720     7.0520 ha         1 3ZJ       0.112000
     61 H25          8.8090     0.7700     5.5190 ha         1 3ZJ       0.112000
     62 H26         -2.2610    -0.6160     5.8450 h1         1 3ZJ      -0.002300
     63 H27         -1.2710     0.8250     6.1100 h1         1 3ZJ      -0.002300
     64 H28         -2.9020     0.7360     6.7880 h1         1 3ZJ      -0.002300
     65 H29          3.8790    -0.7220     0.6090 hc         1 3ZJ       0.065700
     66 H30          5.7150     0.0350     1.6680 hn         1 3ZJ       0.352800
     67 H31          3.3140     0.1200     3.4410 h1         1 3ZJ       0.065700
     68 H32         -2.2390     1.4860     0.2850 ha         1 3ZJ       0.137000
     69 H33          3.1160    -3.5880     2.9360 hn         1 3ZJ       0.256800
     70 H35         -8.3530     5.9600    -0.9290 h1         1 3ZJ      -0.013300
     71 H36         -7.7590     4.5530    -1.8220 h1         1 3ZJ      -0.013300
     72 H37         -6.7140     5.9620    -1.5940 h1         1 3ZJ      -0.013300
     73 H38          5.8380     2.8470     8.8630 ha         1 3ZJ       0.105000
     74 H39          9.7620     2.1440     7.3310 ha         1 3ZJ       0.105000
     75 H40          8.2760     3.1850     9.0020 ha         1 3ZJ       0.104000
     76 O21         -2.7960     1.0460     4.7490 os         1 3ZJ      -0.289900
@<TRIPOS>BOND
     1     1    19 1   
     2     1    22 1   
     3     1    27 2   
     4     2    19 1   
     5     2    20 1   
     6     2    37 1   
     7     2    38 1   
     8     3    10 1   
     9     3    34 1   
    10     3    39 1   
    11     3    40 1   
    12     4     7 ar  
    13     4    25 ar  
    14     4    76 1   
    15     5     7 ar  
    16     5    22 ar  
    17     5    41 1   
    18     6    14 1   
    19     6    15 1   
    20     6    19 1   
    21     6    42 1   
    22     7    43 1   
    23     8    20 1   
    24     8    26 1   
    25     8    44 1   
    26     8    45 1   
    27     9    23 1   
    28     9    26 1   
    29     9    46 1   
    30     9    47 1   
    31    10    16 ar  
    32    10    17 ar  
    33    11    12 1   
    34    11    13 1   
    35    11    48 1   
    36    11    49 1   
    37    12    28 1   
    38    12    50 1   
    39    12    51 1   
    40    13    29 1   
    41    13    52 1   
    42    13    53 1   
    43    14    54 1   
    44    14    55 1   
    45    14    56 1   
    46    15    57 1   
    47    15    58 1   
    48    15    59 1   
    49    16    31 ar  
    50    16    60 1   
    51    17    32 ar  
    52    17    61 1   
    53    18    62 1   
    54    18    63 1   
    55    18    64 1   
    56    18    76 1   
    57    20    23 1   
    58    20    65 1   
    59    21    23 1   
    60    21    34 1   
    61    21    66 1   
    62    22    24 ar  
    63    23    67 1   
    64    24    25 ar  
    65    24    68 1   
    66    25    28 1   
    67    26    69 1   
    68    29    30 1   
    69    30    70 1   
    70    30    71 1   
    71    30    72 1   
    72    31    33 ar  
    73    31    73 1   
    74    32    33 ar  
    75    32    74 1   
    76    33    75 1   
    77    34    35 2   
    78    34    36 2   
@<TRIPOS>SUBSTRUCTURE
     1 3ZJ         1 TEMP              0 ****  ****    0 ROOT
