@<TRIPOS>MOLECULE
molecule
   76    78     1     0     0
SMALL
bcc


@<TRIPOS>ATOM
      1 C2           0.0000     0.0000     0.0000 c          1 3ZK       0.680700
      2 C13         -2.5260     1.0790     2.5620 ca         1 3ZK       0.112100
      3 C16         -2.1210     0.3330     3.6680 ca         1 3ZK       0.135100
      4 C17         -0.3370    -0.6270     2.3850 ca         1 3ZK      -0.121000
      5 C19         -1.0270    -0.5170     3.5730 ca         1 3ZK      -0.197000
      6 C20          7.1570    -1.9280     5.2230 ca         1 3ZK      -0.025500
      7 C21          4.9310    -1.6090     6.0460 ca         1 3ZK      -0.025500
      8 C22          2.4060    -2.4880     1.0410 c3         1 3ZK       0.134800
      9 C23          3.9050    -2.7850     2.8470 c3         1 3ZK       0.115800
     10 C25          7.3470    -2.9510     6.1340 ca         1 3ZK      -0.152500
     11 C26          5.1230    -2.6280     6.9600 ca         1 3ZK      -0.152500
     12 C27          6.3300    -3.3010     7.0020 ca         1 3ZK      -0.026300
     13 N3           1.3480     0.0000     0.0000 n          1 3ZK      -0.485800
     14 N4           5.1030    -0.6230     2.6400 n7         1 3ZK      -0.907100
     15 C5           2.0800     0.0000     1.2690 c3         1 3ZK       0.077000
     16 C6           3.1070    -1.1350     1.2650 c3         1 3ZK      -0.109700
     17 C7          -0.7380     0.1170     1.2730 ca         1 3ZK      -0.146600
     18 C8           3.7810    -1.2530     2.6510 c3         1 3ZK       0.238500
     19 C9           5.9500    -1.2560     5.1810 ca         1 3ZK      -0.323500
     20 C10         -1.8380     0.9730     1.3680 ca         1 3ZK      -0.139000
     21 O11          7.0040     0.5410     3.6980 o          1 3ZK      -0.634800
     22 O12          4.6810     0.8740     4.5560 o          1 3ZK      -0.634800
     23 N14          2.6490    -3.3070     2.2500 n7         1 3ZK      -0.801200
     24 O15         -0.6080    -0.0900    -1.0490 o          1 3ZK      -0.607100
     25 O28         -2.7970     0.4380     4.8410 os         1 3ZK      -0.308900
     26 O30         -6.7080     5.1100     0.8030 os         1 3ZK      -0.429600
     27 C31         -3.9590     2.6410     1.4840 c3         1 3ZK       0.136400
     28 C32         -5.5670     4.2970     0.5260 c3         1 3ZK       0.140400
     29 C33          3.2360     0.9990    -1.1910 c3         1 3ZK      -0.113100
     30 C34          2.6350    -1.4010    -1.5370 c3         1 3ZK      -0.113100
     31 C36         -2.3280    -0.3540     5.9330 c3         1 3ZK       0.125700
     32 C37         -7.1510     5.8900    -0.3100 c3         1 3ZK       0.130700
     33 H1           0.5150    -1.2920     2.3130 ha         1 3ZK       0.157000
     34 H2           1.4110     0.2820    -2.0720 h1         1 3ZK       0.091700
     35 H3          -0.7150    -1.0950     4.4350 ha         1 3ZK       0.145000
     36 H4           7.9550    -1.6520     4.5440 ha         1 3ZK       0.149500
     37 H5           3.9860    -1.0820     6.0130 ha         1 3ZK       0.149500
     38 H6           1.3420    -2.3350     0.9080 h1         1 3ZK       0.054700
     39 H7           2.8260    -2.9810     0.1730 h1         1 3ZK       0.054700
     40 H8           3.9570    -3.0310     3.9010 h1         1 3ZK       0.049700
     41 H9           4.7680    -3.1680     2.3140 h1         1 3ZK       0.049700
     42 H10          8.2930    -3.4780     6.1680 ha         1 3ZK       0.138000
     43 H11          4.3250    -2.9040     7.6390 ha         1 3ZK       0.138000
     44 H12         -4.9480     4.2010     2.5830 hc         1 3ZK       0.069200
     45 H13         -6.0110     2.8790     2.0800 hc         1 3ZK       0.069200
     46 H14          5.6500    -0.6220     1.8010 hn         1 3ZK       0.454800
     47 H15          2.5910     0.9480     1.3910 h1         1 3ZK       0.075700
     48 H16          1.3850    -0.1440     2.0870 h1         1 3ZK       0.075700
     49 H17          3.8550    -0.9710     0.4990 hc         1 3ZK       0.071700
     50 H18          3.1500    -0.8210     3.4190 h1         1 3ZK       0.090700
     51 H19         -2.1520     1.5520     0.5080 ha         1 3ZK       0.157000
     52 H20          2.7780    -4.2630     1.9850 hn         1 3ZK       0.354800
     53 H22         -4.1930     1.9500     0.6830 h1         1 3ZK       0.036700
     54 H23         -3.1290     3.2700     1.1870 h1         1 3ZK       0.036700
     55 H24         -5.8010     3.6060    -0.2750 h1         1 3ZK       0.023200
     56 H25         -4.7620     4.9510     0.2140 h1         1 3ZK       0.023200
     57 H26          4.1180     0.5030    -0.8030 hc         1 3ZK       0.042533
     58 H27          3.4390     1.3660    -2.1900 hc         1 3ZK       0.042533
     59 H28          2.9760     1.8300    -0.5470 hc         1 3ZK       0.042533
     60 H29          2.8540    -1.5060    -2.5920 hc         1 3ZK       0.042533
     61 H30          3.5430    -1.5410    -0.9640 hc         1 3ZK       0.042533
     62 H31          1.9050    -2.1460    -1.2440 hc         1 3ZK       0.042533
     63 H32          5.6600    -4.5060     8.6240 hc         1 3ZK       0.050367
     64 H33          6.6980    -5.3470     7.4640 hc         1 3ZK       0.050367
     65 H34          7.4020    -4.1970     8.6100 hc         1 3ZK       0.050367
     66 H35         -2.9630    -0.1910     6.7960 h1         1 3ZK       0.042367
     67 H36         -1.3110    -0.0710     6.1750 h1         1 3ZK       0.042367
     68 H37         -2.3560    -1.4020     5.6570 h1         1 3ZK       0.042367
     69 H38         -6.3570     6.5570    -0.6220 h1         1 3ZK       0.030367
     70 H39         -8.0180     6.4710    -0.0220 h1         1 3ZK       0.030367
     71 H40         -7.4130     5.2320    -1.1300 h1         1 3ZK       0.030367
     72 O24         -3.6010     1.9070     2.6570 os         1 3ZK      -0.311900
     73 C18          2.0800    -0.0010    -1.2680 c3         1 3ZK       0.110700
     74 S1           5.7110     0.0530     4.0240 sy         1 3ZK       1.423200
     75 C35          6.5370    -4.4160     7.9950 c3         1 3ZK      -0.057800
     76 C29         -5.1830     3.5100     1.7820 c3         1 3ZK      -0.080400
@<TRIPOS>BOND
     1    32    26 1
     2    10     6 ar
     3    10    12 ar
     4     6    19 ar
     5    75    12 1
     6    12    11 ar
     7    26    28 1
     8    21    74 2
     9    23     8 1
    10    23     9 1
    11    19    74 1
    12    19     7 ar
    13    28    76 1
    14    14    74 1
    15    14    18 1
    16     8    16 1
    17    74    22 2
    18    11     7 ar
    19     9    18 1
    20    18    16 1
    21    27    76 1
    22    27    72 1
    23    16    15 1
    24    72     2 1
    25    29    73 1
    26    15    13 1
    27    20     2 ar
    28    20    17 ar
    29    24     1 2
    30    13     1 1
    31    13    73 1
    32     2     3 ar
    33     1    17 1
    34    73    30 1
    35    17     4 ar
    36     3    25 1
    37     3     5 ar
    38    25    31 1
    39     4     5 ar
    40     4    33 1
    41    73    34 1
    42     5    35 1
    43     6    36 1
    44     7    37 1
    45     8    38 1
    46     8    39 1
    47     9    40 1
    48     9    41 1
    49    10    42 1
    50    11    43 1
    51    76    44 1
    52    76    45 1
    53    14    46 1
    54    15    47 1
    55    15    48 1
    56    16    49 1
    57    18    50 1
    58    20    51 1
    59    23    52 1
    60    27    53 1
    61    27    54 1
    62    28    55 1
    63    28    56 1
    64    29    57 1
    65    29    58 1
    66    29    59 1
    67    30    60 1
    68    30    61 1
    69    30    62 1
    70    75    63 1
    71    75    64 1
    72    75    65 1
    73    31    66 1
    74    31    67 1
    75    31    68 1
    76    32    69 1
    77    32    70 1
    78    32    71 1
@<TRIPOS>SUBSTRUCTURE
     1 3ZK         1 TEMP              0 ****  ****    0 ROOT
