@<TRIPOS>MOLECULE
3ZM
   55    58     1     0     0
SMALL
bcc


@<TRIPOS>ATOM
      1 C15          0.0000     0.0000     0.0000 ca         1 3ZM       0.014000
      2 C17          0.0050    -0.0070     2.4010 ca         1 3ZM      -0.087500
      3 C20          1.3960     0.0000     0.0000 ca         1 3ZM      -0.096500
      4 C22         -2.1130    -0.0040    -1.4150 cc         1 3ZM      -0.173000
      5 C28          0.0160     4.2950    -6.9550 c3         1 3ZM      -0.027400
      6 C01          1.7170    -0.5740    -7.2540 cc         1 3ZM       0.408700
      7 N02          2.8260    -0.2920    -6.6590 nd         1 3ZM      -0.558000
      8 C03          3.9120    -0.9000    -7.0920 cd         1 3ZM       0.341600
      9 C04          5.2730    -0.6650    -6.4900 c3         1 3ZM      -0.021400
     10 C05          3.7080    -1.7420    -8.1080 cc         1 3ZM      -0.117700
     11 S06          1.9890    -1.7220    -8.4930 ss         1 3ZM      -0.269300
     12 C07          4.7610    -2.5700    -8.8000 c3         1 3ZM       0.327700
     13 O08          4.8810    -3.8340    -8.1440 oh         1 3ZM      -0.585800
     14 C09          0.3750     0.0150    -6.9030 c3         1 3ZM       0.021400
     15 N10          0.2060     0.0130    -5.4480 ns         1 3ZM      -0.176900
     16 C12         -1.1990     0.0030    -3.4570 cd         1 3ZM      -0.404900
     17 N13         -0.1860     0.0060    -2.5240 na         1 3ZM       0.436900
     18 C14         -0.7420     0.0010    -1.2790 cd         1 3ZM      -0.257300
     19 C16         -0.6930    -0.0070     1.2110 ca         1 3ZM      -0.096500
     20 C18          1.3900    -0.0010     2.3960 ca         1 3ZM      -0.041600
     21 C19          2.0820     0.0000     1.1960 ca         1 3ZM      -0.087500
     22 Cl21         2.2610    -0.0020     3.8970 cl         1 3ZM      -0.026400
     23 C23         -2.4020    -0.0060    -2.7790 cc         1 3ZM      -0.075000
     24 O24         -2.0070    -0.0040    -5.6380 o          1 3ZM      -0.649100
     25 C25          0.2980     1.4510    -7.4240 c3         1 3ZM       0.109500
     26 N26          1.3620     2.2540    -6.8070 n7         1 3ZM      -0.596200
     27 C27          1.3480     3.6320    -7.3140 c3         1 3ZM       0.152800
     28 C29         -1.1310     3.4930    -7.5750 c3         1 3ZM      -0.023400
     29 C30         -1.0650     2.0500    -7.0690 c3         1 3ZM      -0.039400
     30 H171        -0.5320    -0.0100     3.3430 ha         1 3ZM       0.114500
     31 H201         1.9390     0.0010    -0.9370 ha         1 3ZM       0.108500
     32 H221        -2.8360    -0.0100    -0.6090 ha         1 3ZM       0.131000
     33 H282        -0.0980     4.3150    -5.8780 hc         1 3ZM       0.018200
     34 H281         0.0010     5.3060    -7.3440 hc         1 3ZM       0.018200
     35 H043         5.1820    -0.0040    -5.6360 hc         1 3ZM       0.017700
     36 H042         5.6960    -1.6100    -6.1710 hc         1 3ZM       0.017700
     37 H041         5.9220    -0.2110    -7.2300 hc         1 3ZM       0.017700
     38 H072         4.4780    -2.7240    -9.8340 h1         1 3ZM      -0.001300
     39 H071         5.7110    -2.0510    -8.7600 h1         1 3ZM      -0.001300
     40 H081         5.1880    -4.4790    -8.7590 ho         1 3ZM       0.394000
     41 H091        -0.4090    -0.5780    -7.3590 h1         1 3ZM       0.068700
     42 H101         1.0090    -0.0250    -4.8510 hn         1 3ZM       0.180500
     43 H131         0.7940     0.0120    -2.7270 hn         1 3ZM       0.112700
     44 H161        -1.7760    -0.0090     1.2170 ha         1 3ZM       0.108500
     45 H191         3.1650     0.0020     1.1980 ha         1 3ZM       0.114500
     46 H231        -3.3890    -0.0110    -3.2260 ha         1 3ZM       0.140000
     47 H251         0.4220     1.4560    -8.5000 h1         1 3ZM       0.013700
     48 H261         2.2510     1.8360    -7.0020 hn         1 3ZM       0.268800
     49 H272         2.1600     4.1890    -6.8620 h1         1 3ZM       0.003200
     50 H271         1.4660     3.6200    -8.3900 h1         1 3ZM       0.003200
     51 H291        -2.0770     3.9350    -7.2860 hc         1 3ZM       0.013200
     52 H292        -1.0350     3.5020    -8.6540 hc         1 3ZM       0.013200
     53 H301        -1.1950     2.0390    -5.9930 hc         1 3ZM       0.042700
     54 H302        -1.8490     1.4670    -7.5390 hc         1 3ZM       0.042700
     55 C11         -1.0300     0.0040    -4.9130 c          1 3ZM       0.638700
@<TRIPOS>BOND
     1     1     3 ar  
     2     1    18 1   
     3     1    19 ar  
     4     2    19 ar  
     5     2    20 ar  
     6     2    30 1   
     7     3    21 ar  
     8     3    31 1   
     9     4    18 2   
    10     4    23 1   
    11     4    32 1   
    12     5    27 1   
    13     5    28 1   
    14     5    33 1   
    15     5    34 1   
    16     6     7 2   
    17     6    11 1   
    18     6    14 1   
    19     7     8 1   
    20     8     9 1   
    21     8    10 2   
    22     9    35 1   
    23     9    36 1   
    24     9    37 1   
    25    10    11 1   
    26    10    12 1   
    27    12    13 1   
    28    12    38 1   
    29    12    39 1   
    30    13    40 1   
    31    14    15 1   
    32    14    25 1   
    33    14    41 1   
    34    15    42 1   
    35    15    55 1   
    36    16    17 1   
    37    16    23 2   
    38    16    55 1   
    39    17    18 1   
    40    17    43 1   
    41    19    44 1   
    42    20    21 ar  
    43    20    22 1   
    44    21    45 1   
    45    23    46 1   
    46    24    55 2   
    47    25    26 1   
    48    25    29 1   
    49    25    47 1   
    50    26    27 1   
    51    26    48 1   
    52    27    49 1   
    53    27    50 1   
    54    28    29 1   
    55    28    51 1   
    56    28    52 1   
    57    29    53 1   
    58    29    54 1   
@<TRIPOS>SUBSTRUCTURE
     1 3ZM         1 TEMP              0 ****  ****    0 ROOT
