@<TRIPOS>MOLECULE
molecule
   55    58     1     0     0
SMALL
bcc


@<TRIPOS>ATOM
      1 C15          0.0000     0.0000     0.0000 ca         1 3ZM      -0.007000
      2 C17          0.0050    -0.0070     2.4010 ca         1 3ZM      -0.114000
      3 C20          1.3960     0.0000     0.0000 ca         1 3ZM      -0.114000
      4 C22         -2.1130    -0.0040    -1.4150 cc         1 3ZM      -0.197000
      5 C28          0.0160     4.2950    -6.9550 c3         1 3ZM      -0.080400
      6 C01          1.7170    -0.5740    -7.2540 cd         1 3ZM       0.424700
      7 N02          2.8260    -0.2920    -6.6590 nc         1 3ZM      -0.691000
      8 C03          3.9120    -0.9000    -7.0920 cc         1 3ZM       0.392600
      9 C04          5.2730    -0.6650    -6.4900 c3         1 3ZM      -0.121400
     10 C05          3.7080    -1.7420    -8.1080 cd         1 3ZM      -0.152700
     11 S06          1.9890    -1.7220    -8.4930 ss         1 3ZM      -0.168300
     12 C07          4.7610    -2.5700    -8.8000 c3         1 3ZM       0.225700
     13 O08          4.8810    -3.8340    -8.1440 oh         1 3ZM      -0.600800
     14 C09          0.3750     0.0150    -6.9030 c3         1 3ZM       0.111400
     15 N10          0.2060     0.0130    -5.4480 ns         1 3ZM      -0.558900
     16 C12         -1.1990     0.0030    -3.4570 cd         1 3ZM      -0.186900
     17 N13         -0.1860     0.0060    -2.5240 na         1 3ZM      -0.139100
     18 C14         -0.7420     0.0010    -1.2790 cd         1 3ZM      -0.054300
     19 C16         -0.6930    -0.0070     1.2110 ca         1 3ZM      -0.114000
     20 C18          1.3900    -0.0010     2.3960 ca         1 3ZM       0.025400
     21 C19          2.0820     0.0000     1.1960 ca         1 3ZM      -0.114000
     22 Cl21         2.2610    -0.0020     3.8970 cl         1 3ZM      -0.106400
     23 C23         -2.4020    -0.0060    -2.7790 cc         1 3ZM      -0.115000
     24 O24         -2.0070    -0.0040    -5.6380 o          1 3ZM      -0.611100
     25 C25          0.2980     1.4510    -7.4240 c3         1 3ZM       0.158500
     26 N26          1.3620     2.2540    -6.8070 n7         1 3ZM      -0.816200
     27 C27          1.3480     3.6320    -7.3140 c3         1 3ZM       0.160800
     28 C29         -1.1310     3.4930    -7.5750 c3         1 3ZM      -0.082400
     29 C30         -1.0650     2.0500    -7.0690 c3         1 3ZM      -0.068400
     30 H171        -0.5320    -0.0100     3.3430 ha         1 3ZM       0.146000
     31 H201         1.9390     0.0010    -0.9370 ha         1 3ZM       0.137500
     32 H221        -2.8360    -0.0100    -0.6090 ha         1 3ZM       0.154000
     33 H282        -0.0980     4.3150    -5.8780 hc         1 3ZM       0.047200
     34 H281         0.0010     5.3060    -7.3440 hc         1 3ZM       0.047200
     35 H043         5.1820    -0.0040    -5.6360 hc         1 3ZM       0.054700
     36 H042         5.6960    -1.6100    -6.1710 hc         1 3ZM       0.054700
     37 H041         5.9220    -0.2110    -7.2300 hc         1 3ZM       0.054700
     38 H072         4.4780    -2.7240    -9.8340 h1         1 3ZM       0.037700
     39 H071         5.7110    -2.0510    -8.7600 h1         1 3ZM       0.037700
     40 H081         5.1880    -4.4790    -8.7590 ho         1 3ZM       0.406000
     41 H091        -0.4090    -0.5780    -7.3590 h1         1 3ZM       0.092700
     42 H101         1.0090    -0.0250    -4.8510 hn         1 3ZM       0.326500
     43 H131         0.7940     0.0120    -2.7270 hn         1 3ZM       0.299700
     44 H161        -1.7760    -0.0090     1.2170 ha         1 3ZM       0.137500
     45 H191         3.1650     0.0020     1.1980 ha         1 3ZM       0.146000
     46 H231        -3.3890    -0.0110    -3.2260 ha         1 3ZM       0.169000
     47 H251         0.4220     1.4560    -8.5000 h1         1 3ZM       0.024700
     48 H261         2.2510     1.8360    -7.0020 hn         1 3ZM       0.366800
     49 H272         2.1600     4.1890    -6.8620 h1         1 3ZM       0.028700
     50 H271         1.4660     3.6200    -8.3900 h1         1 3ZM       0.028700
     51 H291        -2.0770     3.9350    -7.2860 hc         1 3ZM       0.040200
     52 H292        -1.0350     3.5020    -8.6540 hc         1 3ZM       0.040200
     53 H301        -1.1950     2.0390    -5.9930 hc         1 3ZM       0.064200
     54 H302        -1.8490     1.4670    -7.5390 hc         1 3ZM       0.064200
     55 C11         -1.0300     0.0040    -4.9130 c          1 3ZM       0.705700
@<TRIPOS>BOND
     1    21     3 ar
     2    21    20 ar
     3     3     1 ar
     4    24    55 2
     5    22    20 1
     6     9     8 1
     7    20     2 ar
     8     7     8 1
     9     7     6 2
    10    17    16 1
    11    17    18 1
    12     8    10 2
    13    55    16 1
    14    55    15 1
    15     6    14 1
    16     6    11 1
    17    14    15 1
    18    14    25 1
    19     1    18 1
    20     1    19 ar
    21    16    23 2
    22    18     4 2
    23    26    25 1
    24    26    27 1
    25    10    11 1
    26    10    12 1
    27     2    19 ar
    28    29    25 1
    29    29    28 1
    30    13    12 1
    31     5    27 1
    32     5    28 1
    33    23     4 1
    34     2    30 1
    35     3    31 1
    36     4    32 1
    37     5    33 1
    38     5    34 1
    39     9    35 1
    40     9    36 1
    41     9    37 1
    42    12    38 1
    43    12    39 1
    44    13    40 1
    45    14    41 1
    46    15    42 1
    47    17    43 1
    48    19    44 1
    49    21    45 1
    50    23    46 1
    51    25    47 1
    52    26    48 1
    53    27    49 1
    54    27    50 1
    55    28    51 1
    56    28    52 1
    57    29    53 1
    58    29    54 1
@<TRIPOS>SUBSTRUCTURE
     1 3ZM         1 TEMP              0 ****  ****    0 ROOT
