@<TRIPOS>MOLECULE
molecule
   76    78     1     0     0
SMALL
bcc


@<TRIPOS>ATOM
      1 C2           0.0000     0.0000     0.0000 c3         1 3ZN       0.122800
      2 C3           1.5400     0.0000     0.0000 c3         1 3ZN      -0.130700
      3 C11          3.6770     1.2830    -3.6500 c3         1 3ZN      -0.127100
      4 C12          0.7140     1.8670    -2.6230 c          1 3ZN       0.698700
      5 C13          0.7790     2.4380    -3.9820 ca         1 3ZN      -0.170600
      6 C14          1.6840     1.9240    -4.9140 ca         1 3ZN      -0.161000
      7 C15          0.9070     3.5060    -6.5390 ca         1 3ZN       0.146100
      8 C16         -0.0030     4.0200    -5.6150 ca         1 3ZN       0.099100
      9 C17          1.7430     2.4580    -6.1830 ca         1 3ZN      -0.218000
     10 C18         -0.0680     3.4900    -4.3410 ca         1 3ZN      -0.128000
     11 C21          1.9190     3.4510    -8.6890 c3         1 3ZN       0.126700
     12 C23         -1.7320     5.5210    -4.9710 c3         1 3ZN       0.137400
     13 C24         -2.5680     6.6660    -5.5470 c3         1 3ZN      -0.082400
     14 C25         -3.5390     7.1760    -4.4810 c3         1 3ZN       0.140400
     15 C27         -5.2640     8.7960    -4.0990 c3         1 3ZN       0.130700
     16 C28          3.9200    -0.5320     2.7200 c          1 3ZN       0.746100
     17 N1          -0.4340     0.0290     1.4140 n7         1 3ZN      -0.789200
     18 C4           1.9440     0.0000     1.4920 c3         1 3ZN       0.128100
     19 C5           0.6820    -0.5660     2.1920 c3         1 3ZN       0.128800
     20 C6           2.0710     1.2570    -0.6930 c3         1 3ZN       0.125000
     21 O7           3.0900    -0.8640     1.7140 os         1 3ZN      -0.433900
     22 N8           1.7680     1.1910    -2.1240 n          1 3ZN      -0.505800
     23 C9           2.6100     0.3880    -3.0150 c3         1 3ZN       0.106700
     24 C10          1.7460    -0.2330    -4.1140 c3         1 3ZN      -0.127100
     25 O19         -0.2910     2.0070    -1.9520 o          1 3ZN      -0.600100
     26 O20          0.9690     4.0290    -7.7900 os         1 3ZN      -0.307900
     27 O22         -0.8250     5.0450    -5.9670 os         1 3ZN      -0.312900
     28 O26         -4.3190     8.2440    -5.0190 os         1 3ZN      -0.427600
     29 N29          5.0030    -1.2920     2.9790 ns         1 3ZN      -0.571900
     30 O30          3.6940     0.4530     3.3940 o          1 3ZN      -0.615000
     31 C31          5.9060    -0.9310     4.0740 c3         1 3ZN       0.181300
     32 C32          7.0280    -1.9350     4.1520 ca         1 3ZN      -0.123300
     33 C33          8.1910    -1.7290     3.4320 ca         1 3ZN      -0.109000
     34 C34          9.0860    -3.7750     4.2930 ca         1 3ZN      -0.117000
     35 C35          7.9260    -3.9780     5.0180 ca         1 3ZN      -0.131000
     36 C36          9.2190    -2.6500     3.5030 ca         1 3ZN      -0.131000
     37 C37          6.8960    -3.0580     4.9460 ca         1 3ZN      -0.109000
     38 H1          -0.3680     0.8780    -0.5170 h1         1 3ZN       0.083700
     39 H2          -0.3680    -0.8990    -0.4790 h1         1 3ZN       0.083700
     40 H3           1.9140    -0.8920    -0.4880 hc         1 3ZN       0.072700
     41 H4           3.3230     2.3060    -3.6740 hc         1 3ZN       0.052033
     42 H5           3.8770     0.9460    -4.6600 hc         1 3ZN       0.052033
     43 H6           4.5870     1.2300    -3.0650 hc         1 3ZN       0.052033
     44 H7           2.3380     1.1060    -4.6400 ha         1 3ZN       0.212000
     45 H8           2.4460     2.0600    -6.9050 ha         1 3ZN       0.140000
     46 H9          -0.7740     3.8880    -3.6230 ha         1 3ZN       0.161000
     47 H10          1.6930     2.4010    -8.8260 h1         1 3ZN       0.041700
     48 H11          2.9150     3.5550    -8.2770 h1         1 3ZN       0.041700
     49 H12          1.8680     3.9600    -9.6440 h1         1 3ZN       0.041700
     50 H13         -2.3870     4.7150    -4.6640 h1         1 3ZN       0.036700
     51 H14         -1.1730     5.8780    -4.1150 h1         1 3ZN       0.036700
     52 H15         -3.1270     6.3090    -6.4040 hc         1 3ZN       0.068200
     53 H16         -1.9130     7.4720    -5.8540 hc         1 3ZN       0.068200
     54 H17         -2.9800     7.5330    -3.6250 h1         1 3ZN       0.024200
     55 H18         -4.1940     6.3690    -4.1740 h1         1 3ZN       0.024200
     56 H19         -5.8520     9.5570    -4.5980 h1         1 3ZN       0.030700
     57 H20         -5.9190     8.0110    -3.7390 h1         1 3ZN       0.030700
     58 H21         -4.7370     9.2380    -3.2620 h1         1 3ZN       0.030700
     59 H22         -0.5720     0.9780     1.7010 hn         1 3ZN       0.349800
     60 H24          2.1460     1.0090     1.8310 h1         1 3ZN       0.080700
     61 H25          0.6610    -1.6470     2.1220 h1         1 3ZN       0.068700
     62 H26          0.6420    -0.2420     3.2250 h1         1 3ZN       0.068700
     63 H27          1.5980     2.1330    -0.2640 h1         1 3ZN       0.058700
     64 H28          3.1430     1.3210    -0.5530 h1         1 3ZN       0.058700
     65 H29          3.0910    -0.3980    -2.4460 h1         1 3ZN       0.067700
     66 H30          0.8340     0.3420    -4.2240 hc         1 3ZN       0.052033
     67 H31          2.2920    -0.2280    -5.0490 hc         1 3ZN       0.052033
     68 H32          1.4990    -1.2530    -3.8450 hc         1 3ZN       0.052033
     69 H33          5.1700    -2.1220     2.4460 hn         1 3ZN       0.326500
     70 H34          5.3590    -0.9280     5.0080 h1         1 3ZN       0.060200
     71 H35          6.3160     0.0550     3.8930 h1         1 3ZN       0.060200
     72 H36          8.2950    -0.8460     2.8120 ha         1 3ZN       0.135500
     73 H37          9.8920    -4.4970     4.3490 ha         1 3ZN       0.132000
     74 H38          7.8220    -4.8600     5.6390 ha         1 3ZN       0.133500
     75 H39         10.1290    -2.4900     2.9370 ha         1 3ZN       0.133500
     76 H40          5.9870    -3.2160     5.5140 ha         1 3ZN       0.135500
@<TRIPOS>BOND
     1    15    28 1
     2    35    37 ar
     3    35    34 ar
     4    37    32 ar
     5    34    36 ar
     6    32    31 1
     7    32    33 ar
     8    36    33 ar
     9    31    29 1
    10    28    14 1
    11    29    16 1
    12    17    19 1
    13    17     1 1
    14    14    13 1
    15    19    18 1
    16     1     2 1
    17    16    21 1
    18    16    30 2
    19    21    18 1
    20    12    13 1
    21    12    27 1
    22    18     2 1
    23     2    20 1
    24    27     8 1
    25    24    23 1
    26    20    22 1
    27    10     8 ar
    28    10     5 ar
    29    25     4 2
    30     8     7 ar
    31    22     4 1
    32    22    23 1
    33     4     5 1
    34    23     3 1
    35     5     6 ar
    36     7    26 1
    37     7     9 ar
    38    26    11 1
    39     6     9 ar
    40     1    38 1
    41     1    39 1
    42     2    40 1
    43     3    41 1
    44     3    42 1
    45     3    43 1
    46     6    44 1
    47     9    45 1
    48    10    46 1
    49    11    47 1
    50    11    48 1
    51    11    49 1
    52    12    50 1
    53    12    51 1
    54    13    52 1
    55    13    53 1
    56    14    54 1
    57    14    55 1
    58    15    56 1
    59    15    57 1
    60    15    58 1
    61    17    59 1
    62    18    60 1
    63    19    61 1
    64    19    62 1
    65    20    63 1
    66    20    64 1
    67    23    65 1
    68    24    66 1
    69    24    67 1
    70    24    68 1
    71    29    69 1
    72    31    70 1
    73    31    71 1
    74    33    72 1
    75    34    73 1
    76    35    74 1
    77    36    75 1
    78    37    76 1
@<TRIPOS>SUBSTRUCTURE
     1 3ZN         1 TEMP              0 ****  ****    0 ROOT
