@<TRIPOS>MOLECULE
3ZN
   76    78     1     0     0
SMALL
bcc


@<TRIPOS>ATOM
      1 C2           0.0000     0.0000     0.0000 c3         1 3ZN       0.086800
      2 C3           1.5400     0.0000     0.0000 c3         1 3ZN      -0.110700
      3 C11          3.6770     1.2830    -3.6500 c3         1 3ZN      -0.068100
      4 C12          0.7140     1.8670    -2.6230 c          1 3ZN       0.639700
      5 C13          0.7790     2.4380    -3.9820 ca         1 3ZN      -0.166600
      6 C14          1.6840     1.9240    -4.9140 ca         1 3ZN      -0.214000
      7 C15          0.9070     3.5060    -6.5390 ca         1 3ZN       0.145100
      8 C16         -0.0030     4.0200    -5.6150 ca         1 3ZN       0.105100
      9 C17          1.7430     2.4580    -6.1830 ca         1 3ZN      -0.191000
     10 C18         -0.0680     3.4900    -4.3410 ca         1 3ZN      -0.114000
     11 C21          1.9190     3.4510    -8.6890 c3         1 3ZN       0.241700
     12 C23         -1.7320     5.5210    -4.9710 c3         1 3ZN       0.202400
     13 C24         -2.5680     6.6660    -5.5470 c3         1 3ZN      -0.042400
     14 C25         -3.5390     7.1760    -4.4810 c3         1 3ZN       0.217400
     15 C27         -5.2640     8.7960    -4.0990 c3         1 3ZN       0.256700
     16 C28          3.9200    -0.5320     2.7200 c          1 3ZN       0.674100
     17 N1          -0.4340     0.0290     1.4140 n7         1 3ZN      -0.569200
     18 C4           1.9440     0.0000     1.4920 c3         1 3ZN       0.169100
     19 C5           0.6820    -0.5660     2.1920 c3         1 3ZN       0.120800
     20 C6           2.0710     1.2570    -0.6930 c3         1 3ZN       0.072000
     21 O7           3.0900    -0.8640     1.7140 os         1 3ZN      -0.411900
     22 N8           1.7680     1.1910    -2.1240 n          1 3ZN      -0.174800
     23 C9           2.6100     0.3880    -3.0150 c3         1 3ZN       0.032700
     24 C10          1.7460    -0.2330    -4.1140 c3         1 3ZN      -0.068100
     25 O19         -0.2910     2.0070    -1.9520 o          1 3ZN      -0.632100
     26 O20          0.9690     4.0290    -7.7900 os         1 3ZN      -0.288900
     27 O22         -0.8250     5.0450    -5.9670 os         1 3ZN      -0.290900
     28 O26         -4.3190     8.2440    -5.0190 os         1 3ZN      -0.416600
     29 N29          5.0030    -1.2920     2.9790 ns         1 3ZN      -0.174900
     30 O30          3.6940     0.4530     3.3940 o          1 3ZN      -0.661000
     31 C31          5.9060    -0.9310     4.0740 c3         1 3ZN       0.125300
     32 C32          7.0280    -1.9350     4.1520 ca         1 3ZN      -0.131300
     33 C33          8.1910    -1.7290     3.4320 ca         1 3ZN      -0.081500
     34 C34          9.0860    -3.7750     4.2930 ca         1 3ZN      -0.089000
     35 C35          7.9260    -3.9780     5.0180 ca         1 3ZN      -0.101500
     36 C36          9.2190    -2.6500     3.5030 ca         1 3ZN      -0.101500
     37 C37          6.8960    -3.0580     4.9460 ca         1 3ZN      -0.081500
     38 H1          -0.3680     0.8780    -0.5170 h1         1 3ZN       0.058200
     39 H2          -0.3680    -0.8990    -0.4790 h1         1 3ZN       0.058200
     40 H3           1.9140    -0.8920    -0.4880 hc         1 3ZN       0.046700
     41 H4           3.3230     2.3060    -3.6740 hc         1 3ZN       0.031200
     42 H5           3.8770     0.9460    -4.6600 hc         1 3ZN       0.031200
     43 H6           4.5870     1.2300    -3.0650 hc         1 3ZN       0.031200
     44 H7           2.3380     1.1060    -4.6400 ha         1 3ZN       0.228000
     45 H8           2.4460     2.0600    -6.9050 ha         1 3ZN       0.122000
     46 H9          -0.7740     3.8880    -3.6230 ha         1 3ZN       0.140000
     47 H10          1.6930     2.4010    -8.8260 h1         1 3ZN      -0.002300
     48 H11          2.9150     3.5550    -8.2770 h1         1 3ZN      -0.002300
     49 H12          1.8680     3.9600    -9.6440 h1         1 3ZN      -0.002300
     50 H13         -2.3870     4.7150    -4.6640 h1         1 3ZN       0.003200
     51 H14         -1.1730     5.8780    -4.1150 h1         1 3ZN       0.003200
     52 H15         -3.1270     6.3090    -6.4040 hc         1 3ZN       0.033200
     53 H16         -1.9130     7.4720    -5.8540 hc         1 3ZN       0.033200
     54 H17         -2.9800     7.5330    -3.6250 h1         1 3ZN      -0.009800
     55 H18         -4.1940     6.3690    -4.1740 h1         1 3ZN      -0.009800
     56 H19         -5.8520     9.5570    -4.5980 h1         1 3ZN      -0.012967
     57 H20         -5.9190     8.0110    -3.7390 h1         1 3ZN      -0.012967
     58 H21         -4.7370     9.2380    -3.2620 h1         1 3ZN      -0.012967
     59 H22         -0.5720     0.9780     1.7010 hn         1 3ZN       0.253800
     60 H24          2.1460     1.0090     1.8310 h1         1 3ZN       0.052700
     61 H25          0.6610    -1.6470     2.1220 h1         1 3ZN       0.032700
     62 H26          0.6420    -0.2420     3.2250 h1         1 3ZN       0.032700
     63 H27          1.5980     2.1330    -0.2640 h1         1 3ZN       0.030700
     64 H28          3.1430     1.3210    -0.5530 h1         1 3ZN       0.030700
     65 H29          3.0910    -0.3980    -2.4460 h1         1 3ZN       0.041700
     66 H30          0.8340     0.3420    -4.2240 hc         1 3ZN       0.031200
     67 H31          2.2920    -0.2280    -5.0490 hc         1 3ZN       0.031200
     68 H32          1.4990    -1.2530    -3.8450 hc         1 3ZN       0.031200
     69 H33          5.1700    -2.1220     2.4460 hn         1 3ZN       0.179500
     70 H34          5.3590    -0.9280     5.0080 h1         1 3ZN       0.029700
     71 H35          6.3160     0.0550     3.8930 h1         1 3ZN       0.029700
     72 H36          8.2950    -0.8460     2.8120 ha         1 3ZN       0.108500
     73 H37          9.8920    -4.4970     4.3490 ha         1 3ZN       0.104000
     74 H38          7.8220    -4.8600     5.6390 ha         1 3ZN       0.105500
     75 H39         10.1290    -2.4900     2.9370 ha         1 3ZN       0.105500
     76 H40          5.9870    -3.2160     5.5140 ha         1 3ZN       0.108500
@<TRIPOS>BOND
     1     1     2 1   
     2     1    17 1   
     3     1    38 1   
     4     1    39 1   
     5     2    18 1   
     6     2    20 1   
     7     2    40 1   
     8     3    23 1   
     9     3    41 1   
    10     3    42 1   
    11     3    43 1   
    12     4     5 1   
    13     4    22 1   
    14     4    25 2   
    15     5     6 ar  
    16     5    10 ar  
    17     6     9 ar  
    18     6    44 1   
    19     7     8 ar  
    20     7     9 ar  
    21     7    26 1   
    22     8    10 ar  
    23     8    27 1   
    24     9    45 1   
    25    10    46 1   
    26    11    26 1   
    27    11    47 1   
    28    11    48 1   
    29    11    49 1   
    30    12    13 1   
    31    12    27 1   
    32    12    50 1   
    33    12    51 1   
    34    13    14 1   
    35    13    52 1   
    36    13    53 1   
    37    14    28 1   
    38    14    54 1   
    39    14    55 1   
    40    15    28 1   
    41    15    56 1   
    42    15    57 1   
    43    15    58 1   
    44    16    21 1   
    45    16    29 1   
    46    16    30 2   
    47    17    19 1   
    48    17    59 1   
    49    18    19 1   
    50    18    21 1   
    51    18    60 1   
    52    19    61 1   
    53    19    62 1   
    54    20    22 1   
    55    20    63 1   
    56    20    64 1   
    57    22    23 1   
    58    23    24 1   
    59    23    65 1   
    60    24    66 1   
    61    24    67 1   
    62    24    68 1   
    63    29    31 1   
    64    29    69 1   
    65    31    32 1   
    66    31    70 1   
    67    31    71 1   
    68    32    33 ar  
    69    32    37 ar  
    70    33    36 ar  
    71    33    72 1   
    72    34    35 ar  
    73    34    36 ar  
    74    34    73 1   
    75    35    37 ar  
    76    35    74 1   
    77    36    75 1   
    78    37    76 1   
@<TRIPOS>SUBSTRUCTURE
     1 3ZN         1 TEMP              0 ****  ****    0 ROOT
