@<TRIPOS>MOLECULE
3ZQ
   20    20     1     0     0
SMALL
bcc


@<TRIPOS>ATOM
      1 C4         -0.0180    0.0260   -0.0130 c3        1 3ZQ     -0.075400
      2 C5          1.5050    0.0120    0.0040 c3        1 3ZQ      0.110100
      3 C6          2.0200    0.0180    1.4560 c3        1 3ZQ      0.110100
      4 C1          1.5040    1.2490    2.1910 c3        1 3ZQ     -0.075400
      5 C2         -0.0090    1.2840    2.1570 c3        1 3ZQ     -0.079400
      6 C3         -0.5400    1.2330    0.7380 c3        1 3ZQ     -0.079400
      7 O7          3.4400    0.0800    1.4640 oh        1 3ZQ     -0.601800
      8 O8          1.9290   -1.1750   -0.6530 oh        1 3ZQ     -0.601800
      9 H1         -0.4010   -0.9190    0.4530 hc        1 3ZQ      0.055700
     10 H2         -0.3740    0.0460   -1.0750 hc        1 3ZQ      0.055700
     11 H3          1.9090    0.9140   -0.5350 h1        1 3ZQ      0.047700
     12 H4          1.6740   -0.9190    1.9740 h1        1 3ZQ      0.047700
     13 H5          1.9270    2.1690    1.7110 hc        1 3ZQ      0.055700
     14 H6          1.8680    1.2240    3.2500 hc        1 3ZQ      0.055700
     15 H7         -0.3680    2.2210    2.6570 hc        1 3ZQ      0.044200
     16 H8         -0.4170    0.4150    2.7380 hc        1 3ZQ      0.044200
     17 H9         -0.2410    2.1690    0.1950 hc        1 3ZQ      0.044200
     18 H10        -1.6600    1.1990    0.7590 hc        1 3ZQ      0.044200
     19 H11         3.7520   -0.8010    1.2270 ho        1 3ZQ      0.400000
     20 H12         2.8640   -1.0550   -0.8560 ho        1 3ZQ      0.400000
@<TRIPOS>BOND
     1    1    2 1   
     2    1    6 1   
     3    1    9 1   
     4    1   10 1   
     5    2    3 1   
     6    2    8 1   
     7    2   11 1   
     8    3    4 1   
     9    3    7 1   
    10    3   12 1   
    11    4    5 1   
    12    4   13 1   
    13    4   14 1   
    14    5    6 1   
    15    5   15 1   
    16    5   16 1   
    17    6   17 1   
    18    6   18 1   
    19    7   19 1   
    20    8   20 1   
@<TRIPOS>SUBSTRUCTURE
     1 3ZQ         1 TEMP              0 ****  ****    0 ROOT
