@<TRIPOS>MOLECULE
molecule
   80    82     1     0     0
SMALL
bcc


@<TRIPOS>ATOM
      1 C13          1.5300     0.0000     0.0000 c3         1 3ZR       0.065700
      2 C14          0.0000     0.0000     0.0000 c3         1 3ZR      -0.093400
      3 C15         -0.5110     1.2730     0.6780 c3         1 3ZR      -0.086700
      4 C16         -2.0340     1.2040     0.8110 c3         1 3ZR      -0.076900
      5 C17         -2.5440     2.4770     1.4890 c3         1 3ZR      -0.079900
      6 C18         -2.1600     3.6940     0.6450 c3         1 3ZR      -0.080400
      7 C19         -0.6380     3.7620     0.5120 c3         1 3ZR      -0.079900
      8 C20         -0.1270     2.4890    -0.1660 c3         1 3ZR      -0.076900
      9 C21          2.0330     0.0000     1.4200 c          1 3ZR       0.659100
     10 C24          4.1270     1.4260     3.3550 c3         1 3ZR      -0.054200
     11 C25          4.7780     0.2730     2.6380 cc         1 3ZR      -0.159400
     12 C27          5.6850    -1.1340     1.1130 cd         1 3ZR       0.544500
     13 C29          5.2520    -1.0120     3.2390 c          1 3ZR       0.691700
     14 C31          1.9790     2.2860     4.2990 c3         1 3ZR      -0.017100
     15 O01          1.8750    -0.1970    -2.6700 o          1 3ZR      -0.624000
     16 O03          2.4510    -2.3400    -2.6780 os         1 3ZR      -0.432900
     17 C04          2.5250    -2.2800    -4.1260 c3         1 3ZR       0.217700
     18 C05          2.9210    -3.6320    -4.6650 ca         1 3ZR      -0.092300
     19 C06          1.9480    -4.5600    -4.9850 ca         1 3ZR      -0.102000
     20 C07          2.3100    -5.7990    -5.4790 ca         1 3ZR      -0.124000
     21 C08          3.6460    -6.1100    -5.6550 ca         1 3ZR      -0.110000
     22 C09          4.6200    -5.1800    -5.3350 ca         1 3ZR       0.024400
     23 Cl           6.2970    -5.5700    -5.5550 cl         1 3ZR      -0.105400
     24 C11          4.2560    -3.9390    -4.8450 ca         1 3ZR      -0.097000
     25 N12          2.0180    -1.1960    -0.6920 ns         1 3ZR      -0.557900
     26 N22          2.0250     1.1420     2.1380 ns         1 3ZR      -0.572900
     27 C23          2.6230     1.1700     3.4750 c3         1 3ZR       0.145700
     28 C26          5.0480     0.1850     1.3270 cd         1 3ZR      -0.303600
     29 N28          5.7680    -1.7630     2.2500 nc         1 3ZR      -0.651100
     30 O30          5.1820    -1.3210     4.4050 o          1 3ZR      -0.452100
     31 O32          2.2160     3.5440     3.6640 oh         1 3ZR      -0.566800
     32 O41          2.4430    -1.0270     1.9180 o          1 3ZR      -0.613100
     33 H1           1.8910     0.8850    -0.5110 h1         1 3ZR       0.095700
     34 H2          -0.3610    -0.8670     0.5410 hc         1 3ZR       0.064200
     35 H3          -0.3610    -0.0350    -1.0210 hc         1 3ZR       0.064200
     36 H4          -0.0690     1.3650     1.6630 hc         1 3ZR       0.055700
     37 H5          -2.4770     1.1190    -0.1740 hc         1 3ZR       0.046700
     38 H6          -2.3040     0.3440     1.4110 hc         1 3ZR       0.046700
     39 H7          -2.0960     2.5650     2.4720 hc         1 3ZR       0.040450
     40 H8          -3.6220     2.4280     1.5810 hc         1 3ZR       0.040450
     41 H9          -2.5210     4.5940     1.1270 hc         1 3ZR       0.042700
     42 H10         -2.6040     3.6030    -0.3390 hc         1 3ZR       0.042700
     43 H11         -0.3670     4.6230    -0.0880 hc         1 3ZR       0.040450
     44 H12         -0.1940     3.8480     1.4970 hc         1 3ZR       0.040450
     45 H13         -0.5740     2.4010    -1.1490 hc         1 3ZR       0.046700
     46 H14          0.9520     2.5380    -0.2570 hc         1 3ZR       0.046700
     47 H15          4.5560     1.5250     4.3450 hc         1 3ZR       0.092700
     48 H16          4.2940     2.3390     2.7970 hc         1 3ZR       0.092700
     49 H17          6.4720    -1.2420     0.3760 h4         1 3ZR       0.052800
     50 H18          0.9120     2.1120     4.3690 h1         1 3ZR       0.059700
     51 H20          3.2630    -1.5440    -4.4200 h1         1 3ZR       0.058200
     52 H21          1.5580    -2.0010    -4.5260 h1         1 3ZR       0.058200
     53 H22          0.9020    -4.3160    -4.8480 ha         1 3ZR       0.138000
     54 H23          1.5480    -6.5260    -5.7300 ha         1 3ZR       0.139000
     55 H24          3.9290    -7.0810    -6.0420 ha         1 3ZR       0.145000
     56 H25          5.0180    -3.2110    -4.5950 ha         1 3ZR       0.148000
     57 H26          2.2550    -2.0150    -0.1670 hn         1 3ZR       0.348500
     58 H27          1.6660     1.9840     1.7340 hn         1 3ZR       0.336500
     59 H28          2.4580     0.2180     3.9650 h1         1 3ZR       0.103700
     60 H29          5.4060     1.0530     0.7880 ha         1 3ZR       0.160000
     61 H30          1.7010     4.2110     4.0860 ho         1 3ZR       0.410000
     62 P1           2.7040     2.3030     5.9720 p5         1 3ZR       1.385300
     63 O1           4.0670     2.8740     5.9120 o          1 3ZR      -0.787300
     64 O2           1.7880     3.2020     6.9440 os         1 3ZR      -0.599700
     65 O3           2.7750     0.7980     6.5410 os         1 3ZR      -0.599700
     66 C5           3.3900     0.4680     7.7870 c3         1 3ZR       0.199900
     67 C6           3.2830    -1.0410     8.0230 c3         1 3ZR      -0.096600
     68 C7           2.1440     3.4970     8.2960 c3         1 3ZR       0.199900
     69 C8           1.0600     4.3690     8.9310 c3         1 3ZR      -0.096600
     70 H19          4.4340     0.7560     7.7630 h1         1 3ZR       0.036700
     71 H31          2.8870     0.9950     8.5890 h1         1 3ZR       0.036700
     72 H32          3.3460    -1.2460     9.0850 hc         1 3ZR       0.050200
     73 H33          4.0920    -1.5450     7.5090 hc         1 3ZR       0.050200
     74 H34          2.3340    -1.4000     7.6420 hc         1 3ZR       0.050200
     75 H35          2.2380     2.5730     8.8540 h1         1 3ZR       0.036700
     76 H36          3.0890     4.0270     8.3130 h1         1 3ZR       0.036700
     77 H37          1.3080     4.5560     9.9690 hc         1 3ZR       0.050200
     78 H38          0.1060     3.8580     8.8750 hc         1 3ZR       0.050200
     79 H39          0.9960     5.3110     8.4000 hc         1 3ZR       0.050200
     80 C02          2.1070    -1.2080    -2.0360 c          1 3ZR       0.752100
@<TRIPOS>BOND
     1    31    14 1   
     2    14    27 1   
     3    27    26 1   
     4    27    10 1   
     5     6     7 1   
     6     6     5 1   
     7     8     7 1   
     8     8     3 1   
     9    26     9 1   
    10     4     5 1   
    11     4     3 1   
    12    10    11 1   
    13     2     3 1   
    14     2     1 1   
    15     9     1 1   
    16     9    32 2   
    17     1    25 1   
    18    30    13 2   
    19    11    13 1   
    20    11    28 2   
    21    13    29 1   
    22    28    12 1   
    23    25    80 1   
    24    15    80 2   
    25    29    12 2   
    26    80    16 1   
    27    16    17 1   
    28    23    22 1   
    29    24    22 ar  
    30    24    18 ar  
    31    17    18 1   
    32    22    21 ar  
    33    18    19 ar  
    34    21    20 ar  
    35    19    20 ar  
    36     1    33 1   
    37     2    34 1   
    38     2    35 1   
    39     3    36 1   
    40     4    37 1   
    41     4    38 1   
    42     5    39 1   
    43     5    40 1   
    44     6    41 1   
    45     6    42 1   
    46     7    43 1   
    47     7    44 1   
    48     8    45 1   
    49     8    46 1   
    50    10    47 1   
    51    10    48 1   
    52    12    49 1   
    53    14    50 1   
    54    17    51 1   
    55    17    52 1   
    56    19    53 1   
    57    20    54 1   
    58    21    55 1   
    59    24    56 1   
    60    25    57 1   
    61    26    58 1   
    62    27    59 1   
    63    28    60 1   
    64    31    61 1   
    65    14    62 1   
    66    62    63 2   
    67    62    64 1   
    68    62    65 1   
    69    65    66 1   
    70    66    67 1   
    71    64    68 1   
    72    68    69 1   
    73    66    70 1   
    74    66    71 1   
    75    67    72 1   
    76    67    73 1   
    77    67    74 1   
    78    68    75 1   
    79    68    76 1   
    80    69    77 1   
    81    69    78 1   
    82    69    79 1   
@<TRIPOS>SUBSTRUCTURE
     1 3ZR         1 TEMP              0 ****  ****    0 ROOT
