@<TRIPOS>MOLECULE
3ZS
   14    15     1     0     0
SMALL
bcc


@<TRIPOS>ATOM
      1 C01         0.0300   -0.2210   -0.0890 c3        1 3ZS     -0.080400
      2 C02         1.4960    0.1980    0.0680 c3        1 3ZS     -0.078400
      3 C03         1.9720   -0.2020    1.4690 c3        1 3ZS     -0.080400
      4 C04         0.8100   -0.9000    2.1340 cx        1 3ZS      0.057100
      5 C05        -0.3590   -0.9120    1.1970 cx        1 3ZS      0.057100
      6 O06        -0.3330   -0.0510    2.3510 os        1 3ZS     -0.402600
      7 H1         -0.0960   -0.9250   -0.9480 hc        1 3ZS      0.058200
      8 H2         -0.6200    0.6710   -0.2660 hc        1 3ZS      0.058200
      9 H3          1.5980    1.3020   -0.0730 hc        1 3ZS      0.045700
     10 H4          2.1250   -0.3010   -0.7100 hc        1 3ZS      0.045700
     11 H5          2.2750    0.7000    2.0560 hc        1 3ZS      0.058200
     12 H6          2.8470   -0.8950    1.4130 hc        1 3ZS      0.058200
     13 H7          1.0050   -1.6310    2.9320 h1        1 3ZS      0.101700
     14 H8         -1.1710   -1.6530    1.1860 h1        1 3ZS      0.101700
@<TRIPOS>BOND
     1    1    2 1   
     2    1    5 1   
     3    1    7 1   
     4    1    8 1   
     5    2    3 1   
     6    2    9 1   
     7    2   10 1   
     8    3    4 1   
     9    3   11 1   
    10    3   12 1   
    11    4    5 1   
    12    4    6 1   
    13    4   13 1   
    14    5    6 1   
    15    5   14 1   
@<TRIPOS>SUBSTRUCTURE
     1 3ZS         1 TEMP              0 ****  ****    0 ROOT
