@<TRIPOS>MOLECULE
molecule
   14    15     1     0     0
SMALL
bcc


@<TRIPOS>ATOM
      1 C01          0.0000     0.0000     0.0000 c3         1 3ZS      -0.063900
      2 C02          1.5480     0.0000     0.0000 c3         1 3ZS      -0.085400
      3 C03          1.8900     0.0000     1.5110 c3         1 3ZS      -0.063900
      4 C04          0.8240    -0.9200     2.1400 cx         1 3ZS       0.011600
      5 C05         -0.3790    -0.9190     1.1790 cx         1 3ZS       0.011600
      6 O06         -0.4230    -0.3380     2.5280 op         1 3ZS      -0.351600
      7 H1          -0.3780     1.0020     0.1660 hc         1 3ZS       0.058950
      8 H2          -0.3780    -0.4050    -0.9310 hc         1 3ZS       0.058950
      9 H3           1.9300     0.8940    -0.4780 hc         1 3ZS       0.050200
     10 H4           1.9300    -0.8940    -0.4780 hc         1 3ZS       0.050200
     11 H5           2.8820    -0.4050     1.6730 hc         1 3ZS       0.058950
     12 H6           1.8110     1.0020     1.9160 hc         1 3ZS       0.058950
     13 H7           1.0780    -1.9150     2.4850 h1         1 3ZS       0.102200
     14 H8          -0.7560    -1.9200     1.0090 h1         1 3ZS       0.102200
@<TRIPOS>BOND
     1     1     5 1
     2     1     2 1
     3     5     6 1
     4     5     4 1
     5     6     4 1
     6     2     3 1
     7     4     3 1
     8     1     7 1
     9     1     8 1
    10     2     9 1
    11     2    10 1
    12     3    11 1
    13     3    12 1
    14     4    13 1
    15     5    14 1
@<TRIPOS>SUBSTRUCTURE
     1 3ZS         1 TEMP              0 ****  ****    0 ROOT
