@<TRIPOS>MOLECULE
molecule
   32    34     1     0     0
SMALL
bcc


@<TRIPOS>ATOM
      1 C1           0.0000     0.0000     0.0000 c3         1 3ZU       0.125700
      2 O1           1.4290     0.0000     0.0000 os         1 3ZU      -0.316900
      3 C2           1.2930     0.0000     2.3710 ca         1 3ZU      -0.209000
      4 C3           1.9100    -0.0050     3.6120 ca         1 3ZU      -0.021000
      5 C4           3.3010    -0.0110     3.7030 ca         1 3ZU      -0.104200
      6 C5           5.4030    -0.0220     4.4420 cc         1 3ZU       0.140900
      7 C6           5.4840    -0.0190     2.9540 c          1 3ZU       0.492400
      8 C7           8.7020    -0.0450     7.1180 ca         1 3ZU       0.190600
      9 C8           4.0610    -0.0120     2.5160 ca         1 3ZU      -0.166600
     10 C9           3.4430    -0.0060     1.2830 ca         1 3ZU      -0.075000
     11 C10          2.0460     0.0000     1.2090 ca         1 3ZU       0.155100
     12 N1           4.1410    -0.0180     4.7810 na         1 3ZU       0.372200
     13 O2           3.6920    -0.0190     6.1240 o          1 3ZU      -0.619700
     14 N2           9.7850    -0.0480     7.9950 nv         1 3ZU      -0.994200
     15 C11          7.4030    -0.0400     7.6170 ca         1 3ZU      -0.161500
     16 C12          6.3320    -0.0330     6.7530 ca         1 3ZU      -0.086500
     17 C13          6.5490    -0.0300     5.3720 ca         1 3ZU      -0.142900
     18 C14          7.8560    -0.0350     4.8740 ca         1 3ZU      -0.086500
     19 C15          8.9220    -0.0440     5.7440 ca         1 3ZU      -0.161500
     20 H1          -0.3610    -0.0010    -1.0210 h1         1 3ZU       0.048367
     21 H2          -0.3610     0.8850     0.5100 h1         1 3ZU       0.048367
     22 H3          -0.3610    -0.8840     0.5110 h1         1 3ZU       0.048367
     23 H4           0.2110     0.0040     2.3100 ha         1 3ZU       0.152000
     24 H5           1.3100    -0.0050     4.5140 ha         1 3ZU       0.168000
     25 H7           4.0330     0.0990     0.3810 ha         1 3ZU       0.166000
     26 H9          10.1760     0.8180     8.3100 hn         1 3ZU       0.429800
     27 H10         10.1720    -0.9150     8.3100 hn         1 3ZU       0.429800
     28 H11          7.2350    -0.0420     8.6880 ha         1 3ZU       0.141000
     29 H12          5.3210    -0.0280     7.1430 ha         1 3ZU       0.173500
     30 H13          8.0280    -0.0340     3.8040 ha         1 3ZU       0.173500
     31 H14          9.9350    -0.0480     5.3580 ha         1 3ZU       0.141000
     32 O3           6.4790    -0.0220     2.2600 o          1 3ZU      -0.451100
@<TRIPOS>BOND
     1    14     8 1
     2     8    15 ar
     3     8    19 ar
     4    15    16 ar
     5    13    12 2
     6    19    18 ar
     7    16    17 ar
     8    18    17 ar
     9    17     6 1
    10    12     6 2
    11    12     5 1
    12     6     7 1
    13     5     4 ar
    14     5     9 ar
    15     7    32 2
    16     7     9 1
    17     4     3 ar
    18     9    10 ar
    19     3    11 ar
    20    10    11 ar
    21    11     2 1
    22     2     1 1
    23     1    20 1
    24     1    21 1
    25     1    22 1
    26     3    23 1
    27     4    24 1
    28    10    25 1
    29    14    26 1
    30    14    27 1
    31    15    28 1
    32    16    29 1
    33    18    30 1
    34    19    31 1
@<TRIPOS>SUBSTRUCTURE
     1 3ZU         1 TEMP              0 ****  ****    0 ROOT
