@<TRIPOS>MOLECULE
3ZU
   32    34     1     0     0
SMALL
bcc


@<TRIPOS>ATOM
      1 C1           0.0000     0.0000     0.0000 c3         1 3ZU       0.244700
      2 O1           1.4290     0.0000     0.0000 os         1 3ZU      -0.295900
      3 C2           1.2930     0.0000     2.3710 ca         1 3ZU      -0.218000
      4 C3           1.9100    -0.0050     3.6120 ca         1 3ZU       0.062000
      5 C4           3.3010    -0.0110     3.7030 ca         1 3ZU      -0.367200
      6 C5           5.4030    -0.0220     4.4420 cc         1 3ZU      -0.180100
      7 C6           5.4840    -0.0190     2.9540 c          1 3ZU       0.560400
      8 C7           8.7020    -0.0450     7.1180 ca         1 3ZU       0.040600
      9 C8           4.0610    -0.0120     2.5160 ca         1 3ZU      -0.144600
     10 C9           3.4430    -0.0060     1.2830 ca         1 3ZU      -0.056000
     11 C10          2.0460     0.0000     1.2090 ca         1 3ZU       0.188100
     12 N1           4.1410    -0.0180     4.7810 na         1 3ZU       0.779500
     13 O2           3.6920    -0.0190     6.1240 o          1 3ZU      -0.508000
     14 N2           9.7850    -0.0480     7.9950 nv         1 3ZU      -0.563200
     15 C11          7.4030    -0.0400     7.6170 ca         1 3ZU      -0.121500
     16 C12          6.3320    -0.0330     6.7530 ca         1 3ZU      -0.093000
     17 C13          6.5490    -0.0300     5.3720 ca         1 3ZU      -0.099900
     18 C14          7.8560    -0.0350     4.8740 ca         1 3ZU      -0.093000
     19 C15          8.9220    -0.0440     5.7440 ca         1 3ZU      -0.121500
     20 H1          -0.3610    -0.0010    -1.0210 h1         1 3ZU       0.003700
     21 H2          -0.3610     0.8850     0.5100 h1         1 3ZU       0.003700
     22 H3          -0.3610    -0.8840     0.5110 h1         1 3ZU       0.003700
     23 H4           0.2110     0.0040     2.3100 ha         1 3ZU       0.133000
     24 H5           1.3100    -0.0050     4.5140 ha         1 3ZU       0.129000
     25 H7           4.0330     0.0990     0.3810 ha         1 3ZU       0.133000
     26 H9          10.1760     0.8180     8.3100 hn         1 3ZU       0.272800
     27 H10         10.1720    -0.9150     8.3100 hn         1 3ZU       0.272800
     28 H11          7.2350    -0.0420     8.6880 ha         1 3ZU       0.109000
     29 H12          5.3210    -0.0280     7.1430 ha         1 3ZU       0.150000
     30 H13          8.0280    -0.0340     3.8040 ha         1 3ZU       0.150000
     31 H14          9.9350    -0.0480     5.3580 ha         1 3ZU       0.109000
     32 O3           6.4790    -0.0220     2.2600 o          1 3ZU      -0.484100
@<TRIPOS>BOND
     1     1     2 1   
     2     1    20 1   
     3     1    21 1   
     4     1    22 1   
     5     2    11 1   
     6     3     4 ar  
     7     3    11 ar  
     8     3    23 1   
     9     4     5 ar  
    10     4    24 1   
    11     5     9 ar  
    12     5    12 1   
    13     6     7 1   
    14     6    12 2   
    15     6    17 1   
    16     7     9 1   
    17     7    32 2   
    18     8    14 1   
    19     8    15 ar  
    20     8    19 ar  
    21     9    10 ar  
    22    10    11 ar  
    23    10    25 1   
    24    12    13 1   
    25    14    26 1   
    26    14    27 1   
    27    15    16 ar  
    28    15    28 1   
    29    16    17 ar  
    30    16    29 1   
    31    17    18 ar  
    32    18    19 ar  
    33    18    30 1   
    34    19    31 1   
@<TRIPOS>SUBSTRUCTURE
     1 3ZU         1 TEMP              0 ****  ****    0 ROOT
