@<TRIPOS>MOLECULE
3ZV
   33    35     1     0     0
SMALL
bcc


@<TRIPOS>ATOM
      1 C5           0.0000     0.0000     0.0000 c3         1 3ZV       0.244700
      2 O4           1.4290     0.0000     0.0000 os         1 3ZV      -0.301900
      3 C6           1.2920     0.0000     2.3710 ca         1 3ZV      -0.193000
      4 C7           1.9080    -0.0050     3.6140 ca         1 3ZV      -0.011000
      5 C8           3.2990    -0.0120     3.7060 ca         1 3ZV       0.052400
      6 C10          5.3970    -0.0200     4.4510 cc         1 3ZV       0.359900
      7 C11          5.4800    -0.0180     2.9570 c          1 3ZV       0.528400
      8 C13          8.6870    -0.0410     7.1340 ca         1 3ZV       0.169100
      9 C15          9.4370    -0.0440     9.3880 c3         1 3ZV       0.243700
     10 C1           4.0600    -0.0110     2.5190 ca         1 3ZV      -0.209600
     11 C2           3.4410    -0.0060     1.2840 ca         1 3ZV      -0.040000
     12 C3           2.0460    -0.0000     1.2100 ca         1 3ZV       0.144100
     13 N9           4.1370    -0.0170     4.7840 nd         1 3ZV      -0.427100
     14 O14          9.7390    -0.0420     7.9920 os         1 3ZV      -0.305900
     15 C16          7.3880    -0.0360     7.6300 ca         1 3ZV      -0.188500
     16 C17          6.3180    -0.0300     6.7640 ca         1 3ZV      -0.028000
     17 C18          6.5390    -0.0270     5.3820 ca         1 3ZV      -0.170900
     18 C19          7.8480    -0.0320     4.8880 ca         1 3ZV      -0.028000
     19 C20          8.9110    -0.0390     5.7620 ca         1 3ZV      -0.188500
     20 H1          -0.3610     0.8850     0.5100 h1         1 3ZV       0.000033
     21 H2          -0.3610    -0.0010    -1.0210 h1         1 3ZV       0.000033
     22 H3          -0.3610    -0.8840     0.5120 h1         1 3ZV       0.000033
     23 H4           0.2110     0.0050     2.3090 ha         1 3ZV       0.125000
     24 H5           1.3070    -0.0050     4.5150 ha         1 3ZV       0.111000
     25 H6          10.3590    -0.0460     9.9570 h1         1 3ZV      -0.001967
     26 H7           8.8630     0.8420     9.6350 h1         1 3ZV      -0.001967
     27 H8           8.8600    -0.9280     9.6320 h1         1 3ZV      -0.001967
     28 H9           4.0320     0.1040     0.3830 ha         1 3ZV       0.124000
     29 H10          7.2180    -0.0380     8.7000 ha         1 3ZV       0.121500
     30 H11          5.3060    -0.0260     7.1510 ha         1 3ZV       0.125500
     31 H12          8.0240    -0.0300     3.8190 ha         1 3ZV       0.125500
     32 H13          9.9250    -0.0430     5.3800 ha         1 3ZV       0.121500
     33 O12          6.4760    -0.0190     2.2640 o          1 3ZV      -0.498100
@<TRIPOS>BOND
     1     1     2 1   
     2     1    20 1   
     3     1    21 1   
     4     1    22 1   
     5     2    12 1   
     6     3     4 ar  
     7     3    12 ar  
     8     3    23 1   
     9     4     5 ar  
    10     4    24 1   
    11     5    10 ar  
    12     5    13 1   
    13     6     7 1   
    14     6    13 2   
    15     6    17 1   
    16     7    10 1   
    17     7    33 2   
    18     8    14 1   
    19     8    15 ar  
    20     8    19 ar  
    21     9    14 1   
    22     9    25 1   
    23     9    26 1   
    24     9    27 1   
    25    10    11 ar  
    26    11    12 ar  
    27    11    28 1   
    28    15    16 ar  
    29    15    29 1   
    30    16    17 ar  
    31    16    30 1   
    32    17    18 ar  
    33    18    19 ar  
    34    18    31 1   
    35    19    32 1   
@<TRIPOS>SUBSTRUCTURE
     1 3ZV         1 TEMP              0 ****  ****    0 ROOT
