@<TRIPOS>MOLECULE
molecule
   33    35     1     0     0
SMALL
bcc


@<TRIPOS>ATOM
      1 C5           0.0000     0.0000     0.0000 c3         1 3ZV       0.127700
      2 O4           1.4290     0.0000     0.0000 os         1 3ZV      -0.321900
      3 C6           1.2920     0.0000     2.3710 ca         1 3ZV      -0.202000
      4 C7           1.9080    -0.0050     3.6140 ca         1 3ZV      -0.047000
      5 C8           3.2990    -0.0120     3.7060 ca         1 3ZV       0.094400
      6 C10          5.3970    -0.0200     4.4510 cc         1 3ZV       0.417900
      7 C11          5.4800    -0.0180     2.9570 c          1 3ZV       0.461400
      8 C13          8.6870    -0.0410     7.1340 ca         1 3ZV       0.163100
      9 C15          9.4370    -0.0440     9.3880 c3         1 3ZV       0.127700
     10 C1           4.0600    -0.0110     2.5190 ca         1 3ZV      -0.199600
     11 C2           3.4410    -0.0060     1.2840 ca         1 3ZV      -0.070000
     12 C3           2.0460    -0.0000     1.2100 ca         1 3ZV       0.136100
     13 N9           4.1370    -0.0170     4.7840 nd         1 3ZV      -0.535100
     14 O14          9.7390    -0.0420     7.9920 os         1 3ZV      -0.324900
     15 C16          7.3880    -0.0360     7.6300 ca         1 3ZV      -0.203000
     16 C17          6.3180    -0.0300     6.7640 ca         1 3ZV      -0.050500
     17 C18          6.5390    -0.0270     5.3820 ca         1 3ZV      -0.166900
     18 C19          7.8480    -0.0320     4.8880 ca         1 3ZV      -0.050500
     19 C20          8.9110    -0.0390     5.7620 ca         1 3ZV      -0.203000
     20 H1          -0.3610     0.8850     0.5100 h1         1 3ZV       0.045033
     21 H2          -0.3610    -0.0010    -1.0210 h1         1 3ZV       0.045033
     22 H3          -0.3610    -0.8840     0.5120 h1         1 3ZV       0.045033
     23 H4           0.2110     0.0050     2.3090 ha         1 3ZV       0.143000
     24 H5           1.3070    -0.0050     4.5150 ha         1 3ZV       0.147000
     25 H6          10.3590    -0.0460     9.9570 h1         1 3ZV       0.043700
     26 H7           8.8630     0.8420     9.6350 h1         1 3ZV       0.043700
     27 H8           8.8600    -0.9280     9.6320 h1         1 3ZV       0.043700
     28 H9           4.0320     0.1040     0.3830 ha         1 3ZV       0.158000
     29 H10          7.2180    -0.0380     8.7000 ha         1 3ZV       0.144000
     30 H11          5.3060    -0.0260     7.1510 ha         1 3ZV       0.157500
     31 H12          8.0240    -0.0300     3.8190 ha         1 3ZV       0.157500
     32 H13          9.9250    -0.0430     5.3800 ha         1 3ZV       0.144000
     33 O12          6.4760    -0.0190     2.2640 o          1 3ZV      -0.468100
@<TRIPOS>BOND
     1     9    14 1
     2    15    16 ar
     3    15     8 ar
     4    16    17 ar
     5    14     8 1
     6     8    19 ar
     7    13     6 2
     8    13     5 1
     9    17     6 1
    10    17    18 ar
    11     6     7 1
    12     5     4 ar
    13     5    10 ar
    14     4     3 ar
    15     7    10 1
    16     7    33 2
    17    19    18 ar
    18    10    11 ar
    19     3    12 ar
    20    11    12 ar
    21    12     2 1
    22     2     1 1
    23     1    20 1
    24     1    21 1
    25     1    22 1
    26     3    23 1
    27     4    24 1
    28     9    25 1
    29     9    26 1
    30     9    27 1
    31    11    28 1
    32    15    29 1
    33    16    30 1
    34    18    31 1
    35    19    32 1
@<TRIPOS>SUBSTRUCTURE
     1 3ZV         1 TEMP              0 ****  ****    0 ROOT
