@<TRIPOS>MOLECULE
J01
   22    23     1     0     0
SMALL
bcc


@<TRIPOS>ATOM
      1 O2           0.0000     0.0000     0.0000 o          1 J01      -0.618500
      2 C5           1.2100     0.0000     0.0000 c          1 J01       0.642500
      3 C4           2.3150     0.0000     1.0720 cy         1 J01      -0.188400
      4 C3           3.2810    -0.2810    -0.0930 cy         1 J01       0.201500
      5 N1           2.1350    -0.1400    -0.9950 nj         1 J01      -0.169800
      6 O1           3.8390    -1.6090    -0.2490 os         1 J01      -0.307900
      7 C1           3.1830    -2.1180    -1.3860 c2         1 J01       0.083900
      8 C2           2.1350    -1.1980    -1.9700 c3         1 J01      -0.040100
      9 C8           2.6140    -0.6240    -3.2630 c          1 J01       0.987600
     10 O5           3.6810    -0.0490    -3.4230 o          1 J01      -0.874800
     11 O4           1.7000    -0.8240    -4.2440 o          1 J01      -0.874800
     12 C6           3.4600    -3.3440    -1.8420 c2         1 J01      -0.246200
     13 C7           4.5000    -4.2370    -1.2500 c3         1 J01       0.289600
     14 O3           3.8760    -5.4330    -0.8050 oh         1 J01      -0.595800
     15 H4C1         2.2220    -0.8890     1.6830 hc         1 J01       0.054200
     16 H4C2         2.4680     1.0110     1.4290 hc         1 J01       0.054200
     17 H3           4.0080     0.5090    -0.2330 h2         1 J01       0.056700
     18 H2           1.1670    -1.6780    -2.0530 h1         1 J01       0.076700
     19 H6           2.9330    -3.7000    -2.7190 ha         1 J01       0.133000
     20 H7C1         4.9720    -3.7400    -0.4120 h1         1 J01      -0.017800
     21 H7C2         5.2460    -4.4740    -2.0000 h1         1 J01      -0.017800
     22 HA           4.5360    -6.0590    -0.5570 ho         1 J01       0.369000
@<TRIPOS>BOND
     1     1     2 2   
     2     2     3 1   
     3     2     5 1   
     4     3     4 1   
     5     3    15 1   
     6     3    16 1   
     7     4     5 1   
     8     4     6 1   
     9     4    17 1   
    10     5     8 1   
    11     6     7 1   
    12     7     8 1   
    13     7    12 2   
    14     8     9 1   
    15     8    18 1   
    16     9    10 1   
    17     9    11 1   
    18    12    13 1   
    19    12    19 1   
    20    13    14 1   
    21    13    20 1   
    22    13    21 1   
    23    14    22 1   
@<TRIPOS>SUBSTRUCTURE
     1 J01         1 TEMP              0 ****  ****    0 ROOT
