@<TRIPOS>MOLECULE
J07
   51    54     1     0     0
SMALL
bcc


@<TRIPOS>ATOM
      1 C01          0.0000     0.0000     0.0000 c3         1 J07      -0.009100
      2 C02          1.5300     0.0000     0.0000 c3         1 J07       0.067000
      3 N03          2.0190     0.0000     1.3810 ns         1 J07      -0.240900
      4 C04          3.3440    -0.0000     1.6270 c          1 J07       0.601100
      5 O05          4.1330    -0.0980     0.7070 o          1 J07      -0.706100
      6 N06          3.7940     0.1090     2.8930 n          1 J07      -0.184800
      7 C07          5.2320     0.2320     3.1680 c3         1 J07       0.065000
      8 C08          5.4640     1.4730     4.0340 c3         1 J07      -0.059900
      9 C09          4.5900     1.3870     5.2870 c3         1 J07       0.133500
     10 C10          3.1150     1.3510     4.8810 c3         1 J07      -0.059900
     11 C11          2.8560     0.1150     4.0230 c3         1 J07       0.065000
     12 N12          4.8340     2.5570     6.1350 nu         1 J07      -0.477900
     13 C13          4.5960     2.4880     7.4960 ca         1 J07       0.724900
     14 N14          4.8180     3.5560     8.2450 nb         1 J07      -0.681000
     15 C15          4.5980     3.5220     9.5590 ca         1 J07       0.591100
     16 C16          4.1280     2.3360    10.1370 ca         1 J07      -0.359200
     17 C17          3.9110     1.2440     9.3150 ca         1 J07       0.497200
     18 N18          4.1470     1.3550     8.0160 nb         1 J07      -0.709000
     19 Cl1          3.8270     2.2360    11.8430 cl         1 J07      -0.004400
     20 C20          4.8460     4.7170    10.3940 cc         1 J07      -0.242000
     21 C21          4.3830     6.0880    10.1270 ca         1 J07      -0.060800
     22 C22          3.6370     6.6760     9.1080 ca         1 J07      -0.041000
     23 C23          3.3650     8.0270     9.1520 ca         1 J07      -0.128000
     24 C24          3.8320     8.8000    10.2050 ca         1 J07      -0.086000
     25 C25          4.5710     8.2330    11.2200 ca         1 J07      -0.101000
     26 C26          4.8560     6.8710    11.1940 ca         1 J07      -0.237200
     27 N27          5.5530     6.0350    12.0400 na         1 J07       0.374600
     28 C28          5.5410     4.7620    11.5600 cd         1 J07      -0.238100
     29 H011        -0.3610     0.8800     0.5180 hc         1 J07       0.006700
     30 H012        -0.3610     0.0090    -1.0210 hc         1 J07       0.006700
     31 H013        -0.3610    -0.8890     0.5030 hc         1 J07       0.006700
     32 H021         1.8910    -0.8840    -0.5110 h1         1 J07       0.023200
     33 H022         1.8910     0.8840    -0.5110 h1         1 J07       0.023200
     34 HN03         1.3690    -0.0390     2.1420 hn         1 J07       0.181500
     35 H071         5.7720     0.3350     2.2350 h1         1 J07       0.029200
     36 H072         5.5760    -0.6490     3.6980 h1         1 J07       0.029200
     37 H081         6.5070     1.5200     4.3250 hc         1 J07       0.028950
     38 H082         5.2000     2.3600     3.4710 hc         1 J07       0.028950
     39 H09          4.8340     0.4840     5.8330 h1         1 J07       0.059700
     40 H101         2.8760     2.2410     4.3110 hc         1 J07       0.028950
     41 H102         2.4980     1.3090     5.7700 hc         1 J07       0.028950
     42 H111         3.0050    -0.7770     4.6210 h1         1 J07       0.029200
     43 H112         1.8390     0.1410     3.6490 h1         1 J07       0.029200
     44 HN12         5.1820     3.4040     5.7300 hn         1 J07       0.303800
     45 H17          3.5460     0.3120     9.7280 h4         1 J07      -0.011900
     46 H22          3.2710     6.0740     8.2840 ha         1 J07       0.108000
     47 H23          2.7860     8.4860     8.3610 ha         1 J07       0.103000
     48 H24          3.6130     9.8600    10.2290 ha         1 J07       0.100000
     49 H25          4.9310     8.8460    12.0370 ha         1 J07       0.099000
     50 HN27         6.0020     6.3240    12.8870 hn         1 J07       0.114700
     51 H28          6.0160     3.9130    12.0360 h4         1 J07       0.148000
@<TRIPOS>BOND
     1     1     2 1   
     2     1    29 1   
     3     1    30 1   
     4     1    31 1   
     5     2     3 1   
     6     2    32 1   
     7     2    33 1   
     8     3     4 1   
     9     3    34 1   
    10     4     5 2   
    11     4     6 1   
    12     6     7 1   
    13     6    11 1   
    14     7     8 1   
    15     7    35 1   
    16     7    36 1   
    17     8     9 1   
    18     8    37 1   
    19     8    38 1   
    20     9    10 1   
    21     9    12 1   
    22     9    39 1   
    23    10    11 1   
    24    10    40 1   
    25    10    41 1   
    26    11    42 1   
    27    11    43 1   
    28    12    13 1   
    29    12    44 1   
    30    13    14 ar  
    31    13    18 ar  
    32    14    15 ar  
    33    15    16 ar  
    34    15    20 1   
    35    16    17 ar  
    36    16    19 1   
    37    17    18 ar  
    38    17    45 1   
    39    20    21 1   
    40    20    28 2   
    41    21    22 ar  
    42    21    26 ar  
    43    22    23 ar  
    44    22    46 1   
    45    23    24 ar  
    46    23    47 1   
    47    24    25 ar  
    48    24    48 1   
    49    25    26 ar  
    50    25    49 1   
    51    26    27 1   
    52    27    28 1   
    53    27    50 1   
    54    28    51 1   
@<TRIPOS>SUBSTRUCTURE
     1 J07         1 TEMP              0 ****  ****    0 ROOT
