@<TRIPOS>MOLECULE
molecule
   56    58     1     0     0
SMALL
bcc


@<TRIPOS>ATOM
      1 N1           0.0000     0.0000     0.0000 ns         1 J0G      -0.558900
      2 N3           5.5670     0.0330    -7.3470 nb         1 J0G      -0.674000
      3 C4           3.4840    -0.1210    -1.2820 ca         1 J0G       0.249600
      4 C5           2.0850     0.0060    -1.2760 ca         1 J0G      -0.216600
      5 C6           1.3940     0.1360    -2.4840 ca         1 J0G      -0.048000
      6 C7           1.3480     0.0000     0.0000 c          1 J0G       0.698700
      7 C8          -0.7330     0.0000     1.2690 c3         1 J0G       0.162000
      8 C10         -2.6300     1.4490     2.0160 ca         1 J0G      -0.148000
      9 C13         -4.0600     0.8830    -0.2860 ca         1 J0G      -0.080000
     10 C15         -5.7120     3.3720     2.5010 c3         1 J0G       0.127700
     11 C17          4.2090     0.0230    -4.9700 cp         1 J0G      -0.017000
     12 C20          6.2460    -0.0910    -6.2230 ca         1 J0G       0.429200
     13 C21          5.6010    -0.1020    -5.0040 ca         1 J0G      -0.242300
     14 C22          6.1310    -0.6210     1.3400 c3         1 J0G       0.075800
     15 C1           2.0820     0.1410    -3.6740 ca         1 J0G      -0.163000
     16 O1           1.9550    -0.0060     1.0540 o          1 J0G      -0.665100
     17 C2           3.4740     0.0160    -3.6820 cp         1 J0G       0.043000
     18 C3           4.1710    -0.1140    -2.4860 ca         1 J0G      -0.218000
     19 N4           7.5760    -0.8810     1.3270 nz         1 J0G      -0.807600
     20 C9          -2.0960     0.6060     1.0610 ca         1 J0G      -0.072300
     21 C11         -3.8860     2.0070     1.8230 ca         1 J0G       0.157100
     22 C12         -4.6000     1.7210     0.6690 ca         1 J0G      -0.202000
     23 C14         -2.8130     0.3190    -0.0870 ca         1 J0G      -0.185000
     24 C16          5.6180    -0.5150    -0.0980 c3         1 J0G       0.218800
     25 C18          3.5290     0.1520    -6.1850 ca         1 J0G      -0.242300
     26 C19          4.2520     0.1530    -7.3600 ca         1 J0G       0.429200
     27 C23         -0.8850    -1.4380     1.7690 c3         1 J0G      -0.104100
     28 H1          -0.5000    -0.0030    -0.8670 hn         1 J0G       0.327500
     29 H2           0.3150     0.2330    -2.4830 ha         1 J0G       0.140000
     30 H3          -0.1870     0.5820     2.0010 h1         1 J0G       0.084700
     31 H4          -2.0480     1.7130     2.8910 ha         1 J0G       0.148000
     32 H5          -4.4770     0.5390    -1.2250 ha         1 J0G       0.138000
     33 H6          -5.6820     3.9540     1.5880 h1         1 J0G       0.046033
     34 H7          -6.0710     3.9920     3.3130 h1         1 J0G       0.046033
     35 H8          -6.3780     2.5280     2.3690 h1         1 J0G       0.046033
     36 H9           7.3250    -0.1870    -6.2580 h4         1 J0G       0.031100
     37 H10          6.1660    -0.2050    -4.0850 ha         1 J0G       0.134500
     38 H11          5.9350     0.3080     1.8640 hx         1 J0G       0.123200
     39 H12          5.6220    -1.4330     1.8450 hx         1 J0G       0.123200
     40 H13          1.5440     0.2420    -4.6090 ha         1 J0G       0.149000
     41 H14          3.6960    -0.1420     0.7860 hn         1 J0G       0.498800
     42 H15          5.2490    -0.2110    -2.4950 ha         1 J0G       0.126000
     43 H16          7.7570    -1.7360     0.8410 hn         1 J0G       0.459133
     44 H17          7.9100    -0.9550     2.2680 hn         1 J0G       0.459133
     45 H19         -5.5790     2.1590     0.5150 ha         1 J0G       0.144000
     46 H20         -2.3910    -0.3380    -0.8380 ha         1 J0G       0.120000
     47 H21          5.8130    -1.4440    -0.6200 h1         1 J0G       0.049700
     48 H22          6.1260     0.2970    -0.6040 h1         1 J0G       0.049700
     49 H23          2.4510     0.2510    -6.2040 ha         1 J0G       0.134500
     50 H24          3.7340     0.2530    -8.3070 h4         1 J0G       0.031100
     51 H25         -1.7180    -1.4940     2.4600 hc         1 J0G       0.048033
     52 H26          0.0230    -1.7430     2.2740 hc         1 J0G       0.048033
     53 H27         -1.0690    -2.0960     0.9290 hc         1 J0G       0.048033
     54 O2          -4.4140     2.8330     2.7650 os         1 J0G      -0.326900
     55 H43          8.0480    -0.1160     0.8860 hn         1 J0G       0.459133
     56 N2           4.1760    -0.2560    -0.0850 nu         1 J0G      -0.829600
@<TRIPOS>BOND
     1    14    19 1
     2    14    24 1
     3    24    56 1
     4    56     3 1
     5    27     7 1
     6     3    18 ar
     7     3     4 ar
     8    18    17 ar
     9     7     1 1
    10     7    20 1
    11    16     6 2
    12     6     1 1
    13     6     4 1
    14     4     5 ar
    15    17    11 1
    16    17    15 ar
    17    11    25 ar
    18    11    13 ar
    19    25    26 ar
    20    13    12 ar
    21     5    15 ar
    22    26     2 ar
    23    12     2 ar
    24    20     8 ar
    25    20    23 ar
    26     8    21 ar
    27    10    54 1
    28    23     9 ar
    29    21    54 1
    30    21    22 ar
    31     9    22 ar
    32     1    28 1
    33     5    29 1
    34     7    30 1
    35     8    31 1
    36     9    32 1
    37    10    33 1
    38    10    34 1
    39    10    35 1
    40    12    36 1
    41    13    37 1
    42    14    38 1
    43    14    39 1
    44    15    40 1
    45    56    41 1
    46    18    42 1
    47    19    43 1
    48    19    44 1
    49    22    45 1
    50    23    46 1
    51    24    47 1
    52    24    48 1
    53    25    49 1
    54    26    50 1
    55    27    51 1
    56    27    52 1
    57    27    53 1
    58    55    19 1
@<TRIPOS>SUBSTRUCTURE
     1 J0G         1 TEMP              0 ****  ****    0 ROOT
