@<TRIPOS>MOLECULE
J0G
   56    58     1     0     0
SMALL
bcc


@<TRIPOS>ATOM
      1 N1           0.0000     0.0000     0.0000 ns         1 J0G      -0.165900
      2 N3           5.5670     0.0330    -7.3470 nb         1 J0G      -0.564000
      3 C4           3.4840    -0.1210    -1.2820 ca         1 J0G       0.129600
      4 C5           2.0850     0.0060    -1.2760 ca         1 J0G      -0.231600
      5 C6           1.3940     0.1360    -2.4840 ca         1 J0G      -0.017000
      6 C7           1.3480     0.0000     0.0000 c          1 J0G       0.624700
      7 C8          -0.7330     0.0000     1.2690 c3         1 J0G       0.075000
      8 C10         -2.6300     1.4490     2.0160 ca         1 J0G      -0.127000
      9 C13         -4.0600     0.8830    -0.2860 ca         1 J0G      -0.043000
     10 C15         -5.7120     3.3720     2.5010 c3         1 J0G       0.243700
     11 C17          4.2090     0.0230    -4.9700 cp         1 J0G      -0.021000
     12 C20          6.2460    -0.0910    -6.2230 ca         1 J0G       0.414700
     13 C21          5.6010    -0.1020    -5.0040 ca         1 J0G      -0.215800
     14 C22          6.1310    -0.6210     1.3400 c3         1 J0G      -0.065200
     15 C1           2.0820     0.1410    -3.6740 ca         1 J0G      -0.145000
     16 O1           1.9550    -0.0060     1.0540 o          1 J0G      -0.708100
     17 C2           3.4740     0.0160    -3.6820 cp         1 J0G       0.056000
     18 C3           4.1710    -0.1140    -2.4860 ca         1 J0G      -0.214000
     19 N4           7.5760    -0.8810     1.3270 nz         1 J0G       0.095400
     20 C9          -2.0960     0.6060     1.0610 ca         1 J0G      -0.080300
     21 C11         -3.8860     2.0070     1.8230 ca         1 J0G       0.167100
     22 C12         -4.6000     1.7210     0.6690 ca         1 J0G      -0.188000
     23 C14         -2.8130     0.3190    -0.0870 ca         1 J0G      -0.172000
     24 C16          5.6180    -0.5150    -0.0980 c3         1 J0G       0.172800
     25 C18          3.5290     0.1520    -6.1850 ca         1 J0G      -0.215800
     26 C19          4.2520     0.1530    -7.3600 ca         1 J0G       0.414700
     27 C23         -0.8850    -1.4380     1.7690 c3         1 J0G      -0.011100
     28 H1          -0.5000    -0.0030    -0.8670 hn         1 J0G       0.194500
     29 H2           0.3150     0.2330    -2.4830 ha         1 J0G       0.108000
     30 H3          -0.1870     0.5820     2.0010 h1         1 J0G       0.058700
     31 H4          -2.0480     1.7130     2.8910 ha         1 J0G       0.122000
     32 H5          -4.4770     0.5390    -1.2250 ha         1 J0G       0.108000
     33 H6          -5.6820     3.9540     1.5880 h1         1 J0G       0.001700
     34 H7          -6.0710     3.9920     3.3130 h1         1 J0G       0.001700
     35 H8          -6.3780     2.5280     2.3690 h1         1 J0G       0.001700
     36 H9           7.3250    -0.1870    -6.2580 h4         1 J0G      -0.015400
     37 H10          6.1660    -0.2050    -4.0850 ha         1 J0G       0.113500
     38 H11          5.9350     0.3080     1.8640 hx         1 J0G       0.093200
     39 H12          5.6220    -1.4330     1.8450 hx         1 J0G       0.093200
     40 H13          1.5440     0.2420    -4.6090 ha         1 J0G       0.126000
     41 H14          3.6960    -0.1420     0.7860 hn         1 J0G       0.379800
     42 H15          5.2490    -0.2110    -2.4950 ha         1 J0G       0.112000
     43 H16          7.7570    -1.7360     0.8410 hn         1 J0G       0.223133
     44 H17          7.9100    -0.9550     2.2680 hn         1 J0G       0.223133
     45 H19         -5.5790     2.1590     0.5150 ha         1 J0G       0.127000
     46 H20         -2.3910    -0.3380    -0.8380 ha         1 J0G       0.102000
     47 H21          5.8130    -1.4440    -0.6200 h1         1 J0G       0.019700
     48 H22          6.1260     0.2970    -0.6040 h1         1 J0G       0.019700
     49 H23          2.4510     0.2510    -6.2040 ha         1 J0G       0.113500
     50 H24          3.7340     0.2530    -8.3070 h4         1 J0G      -0.015400
     51 H25         -1.7180    -1.4940     2.4600 hc         1 J0G       0.015033
     52 H26          0.0230    -1.7430     2.2740 hc         1 J0G       0.015033
     53 H27         -1.0690    -2.0960     0.9290 hc         1 J0G       0.015033
     54 O2          -4.4140     2.8330     2.7650 os         1 J0G      -0.305900
     55 H43          8.0480    -0.1160     0.8860 hn         1 J0G       0.223133
     56 N2           4.1760    -0.2560    -0.0850 nu         1 J0G      -0.478600
@<TRIPOS>BOND
     1     1     6 1   
     2     1     7 1   
     3     1    28 1   
     4     2    12 ar  
     5     2    26 ar  
     6     3     4 ar  
     7     3    18 ar  
     8     3    56 1   
     9     4     5 ar  
    10     4     6 1   
    11     5    15 ar  
    12     5    29 1   
    13     6    16 2   
    14     7    20 1   
    15     7    27 1   
    16     7    30 1   
    17     8    20 ar  
    18     8    21 ar  
    19     8    31 1   
    20     9    22 ar  
    21     9    23 ar  
    22     9    32 1   
    23    10    33 1   
    24    10    34 1   
    25    10    35 1   
    26    10    54 1   
    27    11    13 ar  
    28    11    17 1   
    29    11    25 ar  
    30    12    13 ar  
    31    12    36 1   
    32    13    37 1   
    33    14    19 1   
    34    14    24 1   
    35    14    38 1   
    36    14    39 1   
    37    15    17 ar  
    38    15    40 1   
    39    17    18 ar  
    40    18    42 1   
    41    19    43 1   
    42    19    44 1   
    43    19    55 1   
    44    20    23 ar  
    45    21    22 ar  
    46    21    54 1   
    47    22    45 1   
    48    23    46 1   
    49    24    47 1   
    50    24    48 1   
    51    24    56 1   
    52    25    26 ar  
    53    25    49 1   
    54    26    50 1   
    55    27    51 1   
    56    27    52 1   
    57    27    53 1   
    58    41    56 1   
@<TRIPOS>SUBSTRUCTURE
     1 J0G         1 TEMP              0 ****  ****    0 ROOT
