@<TRIPOS>MOLECULE
molecule
   62    61     1     0     0
SMALL
bcc


@<TRIPOS>ATOM
      1 N03          0.0000     0.0000     0.0000 nz         1 J0J      -0.794600
      2 C02          1.4690     0.0000     0.0000 c3         1 J0J       0.010500
      3 C01          1.9800     0.0000     1.4430 c3         1 J0J      -0.111100
      4 C04          1.9720     1.2290    -0.7120 c          1 J0J       0.623100
      5 O05          1.2450     2.1890    -0.8520 o          1 J0J      -0.610100
      6 N06          3.2310     1.2620    -1.1920 ns         1 J0J      -0.480900
      7 C07          3.7200     2.4580    -1.8830 c3         1 J0J      -0.013300
      8 C30          4.2350     3.4490    -0.8720 c          1 J0J       0.888600
      9 O31          4.7350     4.6250    -1.2790 o          1 J0J      -0.816800
     10 C08          4.8520     2.0680    -2.8360 c3         1 J0J      -0.061400
     11 C09          4.3010     1.1600    -3.9380 c3         1 J0J      -0.164400
     12 C10          5.4150     0.7770    -4.8780 c          1 J0J       0.656100
     13 O11          6.5390     1.1880    -4.6850 o          1 J0J      -0.574100
     14 O32          4.1970     3.1830     0.3060 o          1 J0J      -0.816800
     15 C22          6.4180     0.6770    -7.8860 c          1 J0J       0.633100
     16 C13          6.2460    -0.3980    -6.8440 c3         1 J0J       0.034700
     17 C14          5.9030    -1.7220    -7.5300 c3         1 J0J      -0.086400
     18 C15          5.8520    -2.8390    -6.4840 c3         1 J0J      -0.102400
     19 C16          5.5090    -4.1640    -7.1690 c3         1 J0J      -0.091400
     20 C17          5.4580    -5.2790    -6.1230 c3         1 J0J      -0.021500
     21 C19          5.2410    -6.6030    -6.8130 c          1 J0J       0.871600
     22 O23          5.7050     1.6580    -7.8690 o          1 J0J      -0.625100
     23 O20          6.2740    -7.2360    -7.3900 o          1 J0J      -0.780300
     24 O21          4.1380    -7.0930    -6.8440 o          1 J0J      -0.780300
     25 N12          5.1630    -0.0260    -5.9310 ns         1 J0J      -0.575900
     26 N18          4.3520    -5.0270    -5.1900 nz         1 J0J      -0.792600
     27 N24          7.3630     0.5480    -8.8380 ns         1 J0J      -0.538900
     28 C25          7.5290     1.5930    -9.8520 c3         1 J0J      -0.000300
     29 C26          6.5480     1.3510   -11.0010 c3         1 J0J      -0.087100
     30 C27          8.9400     1.5600   -10.3810 c          1 J0J       0.889600
     31 O28          9.3230     2.4330   -11.3250 o          1 J0J      -0.840800
     32 O29          9.7260     0.7470    -9.9550 o          1 J0J      -0.840800
     33 HN03        -0.3340    -0.9330     0.1430 hn         1 J0J       0.453800
     34 HN0A        -0.3340     0.5900     0.7360 hn         1 J0J       0.453800
     35 H02          1.8300    -0.8850    -0.5100 hx         1 J0J       0.093700
     36 H01          1.2390    -0.4580     2.0880 hc         1 J0J       0.080033
     37 H01A         2.9040    -0.5620     1.4990 hc         1 J0J       0.080033
     38 H01B         2.1570     1.0200     1.7630 hc         1 J0J       0.080033
     39 HN06         3.8350     0.4730    -1.0680 hn         1 J0J       0.305500
     40 H07          2.9110     2.9050    -2.4480 h1         1 J0J       0.081700
     41 H08          5.2730     2.9610    -3.2820 hc         1 J0J       0.090200
     42 H08A         5.6220     1.5420    -2.2860 hc         1 J0J       0.090200
     43 H09          3.5300     1.6860    -4.4880 hc         1 J0J       0.036700
     44 H09A         3.8810     0.2660    -3.4930 hc         1 J0J       0.036700
     45 H13          7.1680    -0.5090    -6.2850 h1         1 J0J       0.096700
     46 H14          4.9380    -1.6380    -8.0150 hc         1 J0J       0.066200
     47 H14A         6.6610    -1.9530    -8.2680 hc         1 J0J       0.066200
     48 H15          6.8160    -2.9220    -5.9970 hc         1 J0J       0.029700
     49 H15A         5.0940    -2.6070    -5.7460 hc         1 J0J       0.029700
     50 H16          6.2670    -4.3950    -7.9070 hc         1 J0J       0.088200
     51 H16A         4.5450    -4.0800    -7.6550 hc         1 J0J       0.088200
     52 H17          6.3930    -5.3050    -5.5770 hx         1 J0J       0.107700
     53 HN12         4.2310    -0.3470    -6.1030 hn         1 J0J       0.296500
     54 HN18         3.6140    -4.5490    -5.6690 hn         1 J0J       0.434467
     55 HN1A         4.0100    -5.8970    -4.8350 hn         1 J0J       0.434467
     56 HN24         7.9730    -0.2450    -8.8330 hn         1 J0J       0.325500
     57 H25          7.3330     2.5620    -9.4080 h1         1 J0J       0.078700
     58 H26          7.0710     1.4370   -11.9460 hc         1 J0J       0.028367
     59 H26A         6.1260     0.3580   -10.9110 hc         1 J0J       0.028367
     60 H26B         5.7540     2.0870   -10.9590 hc         1 J0J       0.028367
     61 H033        -0.3340     0.3480    -0.8770 hn         1 J0J       0.453800
     62 H183         4.6730    -4.4440    -4.4420 hn         1 J0J       0.434467
@<TRIPOS>BOND
     1    38     3 1
     2     3    37 1
     3     3    36 1
     4     3     2 1
     5     4     2 1
     6     2     1 1
     7     2    35 1
     8     1    33 1
     9     1    34 1
    10     6     4 1
    11     4     5 2
    12     7     6 1
    13    39     6 1
    14    10     7 1
    15     8     7 1
    16     7    40 1
    17    41    10 1
    18    11    10 1
    19    10    42 1
    20    12    11 1
    21    43    11 1
    22    11    44 1
    23    13    12 2
    24    25    12 1
    25    16    25 1
    26    25    53 1
    27    15    16 1
    28    45    16 1
    29    16    17 1
    30    46    17 1
    31    17    18 1
    32    17    47 1
    33    48    18 1
    34    18    19 1
    35    18    49 1
    36    50    19 1
    37    20    19 1
    38    19    51 1
    39    21    20 1
    40    20    52 1
    41    20    26 1
    42    54    26 1
    43    26    55 1
    44    23    21 1
    45    24    21 1
    46    27    15 1
    47    15    22 2
    48    28    27 1
    49    27    56 1
    50    30    28 1
    51    29    28 1
    52    28    57 1
    53    60    29 1
    54    58    29 1
    55    29    59 1
    56    31    30 1
    57    30    32 1
    58     9     8 1
    59     8    14 1
    60    61     1 1
    61    62    26 1
@<TRIPOS>SUBSTRUCTURE
     1 J0J         1 TEMP              0 ****  ****    0 ROOT
