@<TRIPOS>MOLECULE
J0P
   44    47     1     0     0
SMALL
bcc


@<TRIPOS>ATOM
      1 N1           0.0000     0.0000     0.0000 nb         1 J0P      -0.584000
      2 C4           9.7280    -1.1730     8.3320 ca         1 J0P      -0.104000
      3 C5          10.3820     0.0000     8.0070 ca         1 J0P      -0.095000
      4 C6           9.6700     1.1870     7.9090 ca         1 J0P       0.069100
      5 C7           8.3000     1.1930     8.1370 ca         1 J0P       0.081100
      6 C8           8.3240     3.5700     8.0830 c3         1 J0P       0.166400
      7 C10          3.3900     0.0020     6.1160 ca         1 J0P      -0.148600
      8 C13          2.0450     0.0020     3.6910 cp         1 J0P      -0.020000
      9 C15          4.1080     0.0020     4.9180 ca         1 J0P      -0.058500
     10 C17         -0.0710     0.0020     2.3470 ca         1 J0P      -0.221300
     11 C20          2.0270     0.0000     1.1840 ca         1 J0P      -0.221300
     12 O            3.4800     0.0160     8.4510 o          1 J0P      -0.653100
     13 C14          3.4400     0.0010     3.7150 ca         1 J0P      -0.105000
     14 C16          1.3260     0.0010     2.3940 cp         1 J0P      -0.002000
     15 C19          1.3190     0.0000     0.0000 ca         1 J0P       0.408700
     16 C18         -0.6990     0.0010     1.1180 ca         1 J0P       0.408700
     17 C12          1.3260     0.0030     4.8860 ca         1 J0P      -0.105000
     18 C11          1.9930     0.0030     6.0910 ca         1 J0P      -0.058500
     19 N            5.4530     0.0080     7.4320 ns         1 J0P      -0.188900
     20 C1           6.1640     0.0150     8.7130 c3         1 J0P       0.119300
     21 C2           7.6510     0.0120     8.4640 ca         1 J0P      -0.128300
     22 O1           7.5820     2.3460     8.0420 os         1 J0P      -0.296900
     23 C9           9.5290     3.4340     7.1430 c3         1 J0P       0.170400
     24 O2          10.3290     2.3360     7.5960 os         1 J0P      -0.298900
     25 C3           8.3640    -1.1670     8.5610 ca         1 J0P      -0.088000
     26 H2          11.4500    -0.0070     7.8290 ha         1 J0P       0.117000
     27 H3           8.6700     3.7520     9.0940 h1         1 J0P       0.028200
     28 H4           7.6950     4.3880     7.7530 h1         1 J0P       0.028200
     29 H5           5.1910     0.0010     4.9360 ha         1 J0P       0.117000
     30 H6          -0.6520     0.0030     3.2620 ha         1 J0P       0.121000
     31 H7           3.1100    -0.0000     1.1770 ha         1 J0P       0.121000
     32 H8           3.9970     0.0010     2.7860 ha         1 J0P       0.114000
     33 H9           1.8530    -0.0010    -0.9420 h4         1 J0P      -0.020400
     34 H10         -1.7810     0.0010     1.0720 h4         1 J0P      -0.020400
     35 H11          0.2430     0.0040     4.8660 ha         1 J0P       0.114000
     36 H12          1.4340     0.0040     7.0190 ha         1 J0P       0.117000
     37 H13          5.9680    -0.0290     6.5750 hn         1 J0P       0.181500
     38 H14          5.8910    -0.8670     9.2810 h1         1 J0P       0.033700
     39 H15          5.8930     0.9020     9.2710 h1         1 J0P       0.033700
     40 H16          9.1730     3.2220     6.1420 h1         1 J0P       0.026700
     41 H17         10.1170     4.3420     7.1890 h1         1 J0P       0.026700
     42 H18          7.8540    -2.0880     8.8150 ha         1 J0P       0.113000
     43 C            4.1070     0.0090     7.4090 c          1 J0P       0.591700
     44 H1          10.2850    -2.0990     8.4090 ha         1 J0P       0.109000
@<TRIPOS>BOND
     1     1    15 ar  
     2     1    16 ar  
     3     2     3 ar  
     4     2    25 ar  
     5     2    44 1   
     6     3     4 ar  
     7     3    26 1   
     8     4     5 ar  
     9     4    24 1   
    10     5    21 ar  
    11     5    22 1   
    12     6    22 1   
    13     6    23 1   
    14     6    27 1   
    15     6    28 1   
    16     7     9 ar  
    17     7    18 ar  
    18     7    43 1   
    19     8    13 ar  
    20     8    14 1   
    21     8    17 ar  
    22     9    13 ar  
    23     9    29 1   
    24    10    14 ar  
    25    10    16 ar  
    26    10    30 1   
    27    11    14 ar  
    28    11    15 ar  
    29    11    31 1   
    30    12    43 2   
    31    13    32 1   
    32    15    33 1   
    33    16    34 1   
    34    17    18 ar  
    35    17    35 1   
    36    18    36 1   
    37    19    20 1   
    38    19    37 1   
    39    19    43 1   
    40    20    21 1   
    41    20    38 1   
    42    20    39 1   
    43    21    25 ar  
    44    23    24 1   
    45    23    40 1   
    46    23    41 1   
    47    25    42 1   
@<TRIPOS>SUBSTRUCTURE
     1 J0P         1 TEMP              0 ****  ****    0 ROOT
