@<TRIPOS>MOLECULE
J0S
   77    80     1     0     0
SMALL
bcc


@<TRIPOS>ATOM
      1 O39          0.0000     0.0000     0.0000 os         1 J0S      -0.304900
      2 C40          1.4290     0.0000     0.0000 c3         1 J0S       0.244700
      3 C2          -0.6170     0.0000     1.2110 ca         1 J0S       0.202100
      4 C3           0.1370     0.0050     2.3750 ca         1 J0S      -0.210000
      5 C4          -0.4930     0.0060     3.6050 ca         1 J0S       0.042500
      6 C5          -1.8740     0.0000     3.6750 ca         1 J0S      -0.209500
      7 C6          -2.6280    -0.0060     2.5170 ca         1 J0S       0.042500
      8 C7          -2.0020    -0.0000     1.2840 ca         1 J0S      -0.210000
      9 S8          -2.6740     0.0000     5.2450 sy         1 J0S       1.051200
     10 O9          -3.9670    -0.5500     5.0360 o          1 J0S      -0.586800
     11 O10         -1.7410    -0.5380     6.1720 o          1 J0S      -0.586800
     12 N11         -2.9030     1.5820     5.6780 n3         1 J0S      -0.518500
     13 C12         -4.1350     2.2760     5.2940 c3         1 J0S       0.231800
     14 C13         -5.1590     2.1610     6.4250 c3         1 J0S      -0.080700
     15 C14         -4.6460     2.9140     7.6550 c3         1 J0S       0.004900
     16 C15         -6.4890     2.7700     5.9730 c3         1 J0S       0.004900
     17 C16         -1.8750     2.2880     6.4460 c3         1 J0S       0.189800
     18 C17         -0.9530     3.0450     5.4880 c3         1 J0S       0.144100
     19 O18         -1.6940     4.0670     4.8210 oh         1 J0S      -0.580800
     20 C19          0.1940     3.6790     6.2780 c3         1 J0S       0.011700
     21 N20          1.1410     4.3020     5.3500 ns         1 J0S      -0.166900
     22 C21          2.4280     4.4720     5.7120 c          1 J0S       0.676100
     23 O22          2.8030     4.1080     6.8100 o          1 J0S      -0.644000
     24 O23          3.2970     5.0430     4.8590 os         1 J0S      -0.413900
     25 C24          4.6680     5.1950     5.3170 c3         1 J0S       0.196100
     26 C25          5.5190     3.9650     4.9170 c3         1 J0S      -0.072400
     27 C26          6.9670     4.4940     4.9000 c3         1 J0S       0.164100
     28 O27          7.6490     3.9900     3.7150 os         1 J0S      -0.363900
     29 C28          7.9240     5.0060     2.8900 c          1 J0S       0.773600
     30 O41          8.4920     4.8590     1.8250 o          1 J0S      -0.682500
     31 N29          7.5180     6.1990     3.3440 ns         1 J0S      -0.240900
     32 C30          6.8720     6.0230     4.6790 c3         1 J0S      -0.016300
     33 C31          5.3710     6.3550     4.5720 c3         1 J0S      -0.051400
     34 C32         -0.3660     4.7420     7.2240 c3         1 J0S       0.008900
     35 C33          1.0200     4.6890     9.3070 ca         1 J0S      -0.092000
     36 C34          2.0390     5.1830    10.1010 ca         1 J0S      -0.093000
     37 C35          2.7780     6.2730     9.6790 ca         1 J0S      -0.100000
     38 C36          2.4980     6.8680     8.4630 ca         1 J0S      -0.093000
     39 C37          1.4790     6.3740     7.6690 ca         1 J0S      -0.092000
     40 C38          0.7440     5.2810     8.0890 ca         1 J0S      -0.078300
     41 H1           1.7900    -0.8730     0.5300 h1         1 J0S       0.001367
     42 H2           1.7900     0.8960     0.4910 h1         1 J0S       0.001367
     43 H3           1.7900    -0.0230    -1.0210 h1         1 J0S       0.001367
     44 H4           1.2190     0.0100     2.3200 ha         1 J0S       0.126500
     45 H5           0.0960     0.0110     4.5140 ha         1 J0S       0.123000
     46 H6          -3.7100    -0.0090     2.5750 ha         1 J0S       0.123000
     47 H7          -2.5930    -0.0060     0.3770 ha         1 J0S       0.126500
     48 H8          -3.9180     3.3210     5.1080 h1         1 J0S       0.027700
     49 H9          -4.5380     1.8250     4.3950 h1         1 J0S       0.027700
     50 H10         -5.3060     1.1180     6.6760 hc         1 J0S       0.048700
     51 H11         -3.8870     2.3210     8.1510 hc         1 J0S       0.004367
     52 H12         -4.2200     3.8610     7.3470 hc         1 J0S       0.004367
     53 H13         -5.4680     3.0920     8.3380 hc         1 J0S       0.004367
     54 H14         -6.8380     2.2550     5.0860 hc         1 J0S       0.004367
     55 H15         -7.2210     2.6650     6.7640 hc         1 J0S       0.004367
     56 H16         -6.3470     3.8200     5.7490 hc         1 J0S       0.004367
     57 H17         -1.2940     1.5720     7.0160 h1         1 J0S       0.055700
     58 H18         -2.3470     2.9900     7.1230 h1         1 J0S       0.055700
     59 H19         -0.5490     2.3560     4.7560 h1         1 J0S       0.011700
     60 H20         -1.5050     4.0410     3.8970 ho         1 J0S       0.390000
     61 H21          0.7030     2.9150     6.8540 h1         1 J0S       0.070700
     62 H22          0.8300     4.6110     4.4500 hn         1 J0S       0.171500
     63 H23          4.7060     5.3520     6.3880 h1         1 J0S       0.053700
     64 H24          5.4520     3.2570     5.7330 hc         1 J0S       0.055200
     65 H25          5.2600     3.7230     3.8930 hc         1 J0S       0.055200
     66 H26          7.5000     4.2490     5.8100 h1         1 J0S       0.050700
     67 H27          7.6360     7.0710     2.8670 hn         1 J0S       0.218500
     68 H28          7.3700     6.5850     5.4600 h1         1 J0S       0.048700
     69 H29          5.0630     6.3780     3.5330 hc         1 J0S       0.035200
     70 H30          5.1580     7.3000     5.0580 hc         1 J0S       0.035200
     71 H31         -1.1300     4.3000     7.8520 hc         1 J0S       0.034200
     72 H32         -0.7970     5.5500     6.6450 hc         1 J0S       0.034200
     73 H34          2.2570     4.7180    11.0550 ha         1 J0S       0.097500
     74 H35          3.5760     6.6600    10.3000 ha         1 J0S       0.098000
     75 H36          3.0750     7.7230     8.1330 ha         1 J0S       0.097500
     76 H37          1.2600     6.8400     6.7160 ha         1 J0S       0.100000
     77 H33          0.4410     3.8350     9.6380 ha         1 J0S       0.100000
@<TRIPOS>BOND
     1     1     2 1   
     2     1     3 1   
     3     2    41 1   
     4     2    42 1   
     5     2    43 1   
     6     3     4 ar  
     7     3     8 ar  
     8     4     5 ar  
     9     4    44 1   
    10     5     6 ar  
    11     5    45 1   
    12     6     7 ar  
    13     6     9 1   
    14     7     8 ar  
    15     7    46 1   
    16     8    47 1   
    17     9    10 2   
    18     9    11 2   
    19     9    12 1   
    20    12    13 1   
    21    12    17 1   
    22    13    14 1   
    23    13    48 1   
    24    13    49 1   
    25    14    15 1   
    26    14    16 1   
    27    14    50 1   
    28    15    51 1   
    29    15    52 1   
    30    15    53 1   
    31    16    54 1   
    32    16    55 1   
    33    16    56 1   
    34    17    18 1   
    35    17    57 1   
    36    17    58 1   
    37    18    19 1   
    38    18    20 1   
    39    18    59 1   
    40    19    60 1   
    41    20    21 1   
    42    20    34 1   
    43    20    61 1   
    44    21    22 1   
    45    21    62 1   
    46    22    23 2   
    47    22    24 1   
    48    24    25 1   
    49    25    26 1   
    50    25    33 1   
    51    25    63 1   
    52    26    27 1   
    53    26    64 1   
    54    26    65 1   
    55    27    28 1   
    56    27    32 1   
    57    27    66 1   
    58    28    29 1   
    59    29    30 2   
    60    29    31 1   
    61    31    32 1   
    62    31    67 1   
    63    32    33 1   
    64    32    68 1   
    65    33    69 1   
    66    33    70 1   
    67    34    40 1   
    68    34    71 1   
    69    34    72 1   
    70    35    36 ar  
    71    35    40 ar  
    72    35    77 1   
    73    36    37 ar  
    74    36    73 1   
    75    37    38 ar  
    76    37    74 1   
    77    38    39 ar  
    78    38    75 1   
    79    39    40 ar  
    80    39    76 1   
@<TRIPOS>SUBSTRUCTURE
     1 J0S         1 TEMP              0 ****  ****    0 ROOT
