@<TRIPOS>MOLECULE
molecule
   77    80     1     0     0
SMALL
bcc


@<TRIPOS>ATOM
      1 O39          0.0000     0.0000     0.0000 os         1 J0S      -0.322900
      2 C40          1.4290     0.0000     0.0000 c3         1 J0S       0.125700
      3 C2          -0.6170     0.0000     1.2110 ca         1 J0S       0.192100
      4 C3           0.1370     0.0050     2.3750 ca         1 J0S      -0.214000
      5 C4          -0.4930     0.0060     3.6050 ca         1 J0S       0.003500
      6 C5          -1.8740     0.0000     3.6750 ca         1 J0S      -0.359500
      7 C6          -2.6280    -0.0060     2.5170 ca         1 J0S       0.003500
      8 C7          -2.0020    -0.0000     1.2840 ca         1 J0S      -0.214000
      9 S8          -2.6740     0.0000     5.2450 sy         1 J0S       1.424200
     10 O9          -3.9670    -0.5500     5.0360 o          1 J0S      -0.635800
     11 O10         -1.7410    -0.5380     6.1720 o          1 J0S      -0.635800
     12 N11         -2.9030     1.5820     5.6780 n3         1 J0S      -0.811500
     13 C12         -4.1350     2.2760     5.2940 c3         1 J0S       0.239800
     14 C13         -5.1590     2.1610     6.4250 c3         1 J0S      -0.096700
     15 C14         -4.6460     2.9140     7.6550 c3         1 J0S      -0.088100
     16 C15         -6.4890     2.7700     5.9730 c3         1 J0S      -0.088100
     17 C16         -1.8750     2.2880     6.4460 c3         1 J0S       0.220800
     18 C17         -0.9530     3.0450     5.4880 c3         1 J0S       0.105100
     19 O18         -1.6940     4.0670     4.8210 oh         1 J0S      -0.600800
     20 C19          0.1940     3.6790     6.2780 c3         1 J0S       0.122700
     21 N20          1.1410     4.3020     5.3500 ns         1 J0S      -0.568900
     22 C21          2.4280     4.4720     5.7120 c          1 J0S       0.747100
     23 O22          2.8030     4.1080     6.8100 o          1 J0S      -0.597000
     24 O23          3.2970     5.0430     4.8590 os         1 J0S      -0.431900
     25 C24          4.6680     5.1950     5.3170 c3         1 J0S       0.158100
     26 C25          5.5190     3.9650     4.9170 c3         1 J0S      -0.112400
     27 C26          6.9670     4.4940     4.9000 c3         1 J0S       0.121100
     28 O27          7.6490     3.9900     3.7150 os         1 J0S      -0.374900
     29 C28          7.9240     5.0060     2.8900 c          1 J0S       0.830600
     30 O41          8.4920     4.8590     1.8250 o          1 J0S      -0.628500
     31 N29          7.5180     6.1990     3.3440 ns         1 J0S      -0.616900
     32 C30          6.8720     6.0230     4.6790 c3         1 J0S       0.066700
     33 C31          5.3710     6.3550     4.5720 c3         1 J0S      -0.101400
     34 C32         -0.3660     4.7420     7.2240 c3         1 J0S      -0.049100
     35 C33          1.0200     4.6890     9.3070 ca         1 J0S      -0.116500
     36 C34          2.0390     5.1830    10.1010 ca         1 J0S      -0.122000
     37 C35          2.7780     6.2730     9.6790 ca         1 J0S      -0.127000
     38 C36          2.4980     6.8680     8.4630 ca         1 J0S      -0.122000
     39 C37          1.4790     6.3740     7.6690 ca         1 J0S      -0.116500
     40 C38          0.7440     5.2810     8.0890 ca         1 J0S      -0.070300
     41 H1           1.7900    -0.8730     0.5300 h1         1 J0S       0.047367
     42 H2           1.7900     0.8960     0.4910 h1         1 J0S       0.047367
     43 H3           1.7900    -0.0230    -1.0210 h1         1 J0S       0.047367
     44 H4           1.2190     0.0100     2.3200 ha         1 J0S       0.148000
     45 H5           0.0960     0.0110     4.5140 ha         1 J0S       0.152500
     46 H6          -3.7100    -0.0090     2.5750 ha         1 J0S       0.152500
     47 H7          -2.5930    -0.0060     0.3770 ha         1 J0S       0.148000
     48 H8          -3.9180     3.3210     5.1080 h1         1 J0S       0.060200
     49 H9          -4.5380     1.8250     4.3950 h1         1 J0S       0.060200
     50 H10         -5.3060     1.1180     6.6760 hc         1 J0S       0.068700
     51 H11         -3.8870     2.3210     8.1510 hc         1 J0S       0.035700
     52 H12         -4.2200     3.8610     7.3470 hc         1 J0S       0.035700
     53 H13         -5.4680     3.0920     8.3380 hc         1 J0S       0.035700
     54 H14         -6.8380     2.2550     5.0860 hc         1 J0S       0.035700
     55 H15         -7.2210     2.6650     6.7640 hc         1 J0S       0.035700
     56 H16         -6.3470     3.8200     5.7490 hc         1 J0S       0.035700
     57 H17         -1.2940     1.5720     7.0160 h1         1 J0S       0.083200
     58 H18         -2.3470     2.9900     7.1230 h1         1 J0S       0.083200
     59 H19         -0.5490     2.3560     4.7560 h1         1 J0S       0.043700
     60 H20         -1.5050     4.0410     3.8970 ho         1 J0S       0.404000
     61 H21          0.7030     2.9150     6.8540 h1         1 J0S       0.092700
     62 H22          0.8300     4.6110     4.4500 hn         1 J0S       0.320500
     63 H23          4.7060     5.3520     6.3880 h1         1 J0S       0.086700
     64 H24          5.4520     3.2570     5.7330 hc         1 J0S       0.087700
     65 H25          5.2600     3.7230     3.8930 hc         1 J0S       0.087700
     66 H26          7.5000     4.2490     5.8100 h1         1 J0S       0.092700
     67 H27          7.6360     7.0710     2.8670 hn         1 J0S       0.363500
     68 H28          7.3700     6.5850     5.4600 h1         1 J0S       0.080700
     69 H29          5.0630     6.3780     3.5330 hc         1 J0S       0.071200
     70 H30          5.1580     7.3000     5.0580 hc         1 J0S       0.071200
     71 H31         -1.1300     4.3000     7.8520 hc         1 J0S       0.062200
     72 H32         -0.7970     5.5500     6.6450 hc         1 J0S       0.062200
     73 H34          2.2570     4.7180    11.0550 ha         1 J0S       0.124000
     74 H35          3.5760     6.6600    10.3000 ha         1 J0S       0.124000
     75 H36          3.0750     7.7230     8.1330 ha         1 J0S       0.124000
     76 H37          1.2600     6.8400     6.7160 ha         1 J0S       0.124500
     77 H33          0.4410     3.8350     9.6380 ha         1 J0S       0.124500
@<TRIPOS>BOND
     1    38    37 ar
     2    38    39 ar
     3    37    36 ar
     4    39    40 ar
     5    36    35 ar
     6     4     3 ar
     7     4     5 ar
     8     1     3 1
     9     1     2 1
    10     3     8 ar
    11     5     6 ar
    12    40    35 ar
    13    40    34 1
    14    10     9 2
    15     8     7 ar
    16     6     7 ar
    17     6     9 1
    18    34    20 1
    19     9    11 2
    20     9    12 1
    21    20    21 1
    22    20    18 1
    23    31    29 1
    24    31    32 1
    25    17    12 1
    26    17    18 1
    27    12    13 1
    28    30    29 2
    29    21    22 1
    30    18    19 1
    31    29    28 1
    32    32    33 1
    33    32    27 1
    34    23    22 2
    35    33    25 1
    36    22    24 1
    37    13    14 1
    38    24    25 1
    39    28    27 1
    40    25    26 1
    41    27    26 1
    42    15    14 1
    43    14    16 1
    44     2    41 1
    45     2    42 1
    46     2    43 1
    47     4    44 1
    48     5    45 1
    49     7    46 1
    50     8    47 1
    51    13    48 1
    52    13    49 1
    53    14    50 1
    54    15    51 1
    55    15    52 1
    56    15    53 1
    57    16    54 1
    58    16    55 1
    59    16    56 1
    60    17    57 1
    61    17    58 1
    62    18    59 1
    63    19    60 1
    64    20    61 1
    65    21    62 1
    66    25    63 1
    67    26    64 1
    68    26    65 1
    69    27    66 1
    70    31    67 1
    71    32    68 1
    72    33    69 1
    73    33    70 1
    74    34    71 1
    75    34    72 1
    76    35    77 1
    77    36    73 1
    78    37    74 1
    79    38    75 1
    80    39    76 1
@<TRIPOS>SUBSTRUCTURE
     1 J0S         1 TEMP              0 ****  ****    0 ROOT
