@<TRIPOS>MOLECULE
molecule
   65    69     1     0     0
SMALL
bcc


@<TRIPOS>ATOM
      1 C02          0.0000     0.0000     0.0000 ca         1 J0T      -0.078500
      2 C03          1.3930     0.0000     0.0000 ca         1 J0T      -0.139000
      3 C05          1.3910    -0.0010     2.3950 ca         1 J0T      -0.166000
      4 C06          0.0060    -0.0010     2.4010 ca         1 J0T       0.133900
      5 C08         -0.7450    -0.0060    -1.2840 cc         1 J0T       0.326800
      6 C12         -0.2120    -0.0060    -2.5410 cd         1 J0T      -0.260600
      7 C14         -1.0310     1.4220    -5.3630 c3         1 J0T       0.099100
      8 C15         -1.1780    -0.0160    -4.8550 c3         1 J0T       0.072000
      9 C16          0.0430    -0.8290    -5.2960 c3         1 J0T       0.123100
     10 C33          5.4470    -6.5680   -13.3460 ca         1 J0T      -0.067500
     11 C35          7.1220    -8.0950   -14.1440 ca         1 J0T       0.131900
     12 C37          4.7980    -8.5550   -14.5270 ca         1 J0T      -0.105000
     13 C01         -0.6920    -0.0010     1.2090 ca         1 J0T      -0.141000
     14 C04          2.0810     0.0000     1.1970 ca         1 J0T      -0.103000
     15 C13         -0.8660     1.4030    -6.8850 c3         1 J0T       0.127100
     16 C17          0.1670    -0.7630    -6.8210 c3         1 J0T       0.211200
     17 C20         -0.6590     2.8320    -7.3930 c3         1 J0T       0.150400
     18 C25          2.7450    -2.3340    -9.7620 c3         1 J0T       0.125100
     19 C27          2.6550    -2.2830   -11.2890 c3         1 J0T       0.216300
     20 C30          5.0800    -5.3180   -12.6340 cd         1 J0T       0.312800
     21 C31          3.8220    -4.8380   -12.4190 cc         1 J0T      -0.290600
     22 C34          6.7870    -6.9260   -13.4850 ca         1 J0T      -0.143000
     23 C36          6.1280    -8.9080   -14.6640 ca         1 J0T      -0.172000
     24 C38          4.4530    -7.3910   -13.8710 ca         1 J0T      -0.144000
     25 F07         -0.6630    -0.0010     3.5750 f          1 J0T      -0.138900
     26 F39          8.4200    -8.4430   -14.2800 f          1 J0T      -0.140900
     27 N09         -2.0800    -0.0180    -1.4440 nd         1 J0T      -0.350000
     28 N10         -2.3470    -0.0250    -2.7020 nc         1 J0T      -0.204800
     29 N11         -1.2620    -0.0130    -3.3920 na         1 J0T       0.137400
     30 N28          3.9760    -3.6810   -11.7350 na         1 J0T       0.025400
     31 N29          5.2330    -3.4790   -11.5510 nc         1 J0T      -0.212800
     32 N32          5.9220    -4.4350   -12.0670 nd         1 J0T      -0.373000
     33 O18          0.2690     0.6060    -7.2300 os         1 J0T      -0.381600
     34 O21         -0.6220     2.8280    -8.8210 oh         1 J0T      -0.601800
     35 O22         -0.1170    -2.1900    -4.8880 oh         1 J0T      -0.587800
     36 O26          3.9530    -1.7000    -9.3350 oh         1 J0T      -0.572800
     37 S23          1.6510    -1.6630    -7.3470 ss         1 J0T      -0.271200
     38 H1           1.9360     0.0010    -0.9380 ha         1 J0T       0.131000
     39 H2           1.9360    -0.0010     3.3310 ha         1 J0T       0.145000
     40 H3           0.8140     0.2290    -2.7980 h4         1 J0T       0.191000
     41 H4          -1.9180     1.9880    -5.1040 h1         1 J0T       0.064700
     42 H5          -2.0750    -0.4560    -5.2730 h1         1 J0T       0.108700
     43 H6           0.9350    -0.4130    -4.8430 h1         1 J0T       0.080700
     44 H7           0.6290    -2.0840    -9.4800 h1         1 J0T       0.078700
     45 H8           1.5470    -0.5720    -9.4840 h1         1 J0T       0.078700
     46 H9           4.0250    -9.1950   -14.9360 ha         1 J0T       0.134000
     47 H10         -1.7760    -0.0010     1.2140 ha         1 J0T       0.167000
     48 H11          3.1640    -0.0000     1.1970 ha         1 J0T       0.138000
     49 H12         -1.7540     0.9790    -7.3370 h1         1 J0T       0.056700
     50 H13         -0.7110    -1.2080    -7.2720 h2         1 J0T       0.065700
     51 H14          0.2770     3.2200    -7.0090 h1         1 J0T       0.040700
     52 H15         -1.4760     3.4580    -7.0550 h1         1 J0T       0.040700
     53 H16          2.7430    -3.3670    -9.4340 h1         1 J0T       0.072700
     54 H17          2.7460    -1.2570   -11.6220 h1         1 J0T       0.091200
     55 H18          1.7000    -2.6830   -11.6080 h1         1 J0T       0.091200
     56 H19          2.9200    -5.1640   -12.9230 h4         1 J0T       0.171000
     57 H20          7.5640    -6.2900   -13.0780 ha         1 J0T       0.167000
     58 H21          6.3940    -9.8220   -15.1790 ha         1 J0T       0.142000
     59 H22          3.4110    -7.1170   -13.7650 ha         1 J0T       0.128000
     60 H23         -0.1180     2.8640    -4.4070 ho         1 J0T       0.415000
     61 H24         -0.7770     3.7010    -9.1420 ho         1 J0T       0.409000
     62 H25          0.7310    -2.5790    -4.7500 ho         1 J0T       0.423000
     63 H26          4.3800    -2.2400    -8.6900 ho         1 J0T       0.428000
     64 O19          0.1180     2.0240    -4.7660 oh         1 J0T      -0.590800
     65 C24          1.5450    -1.6040    -9.1560 c3         1 J0T      -0.016300
@<TRIPOS>BOND
     1    28    27 2
     2    28    29 1
     3    27     5 1
     4    35     9 1
     5     8    29 1
     6     8     9 1
     7     8     7 1
     8    29     6 1
     9    16     9 1
    10    16    37 1
    11    16    33 1
    12    65    37 1
    13    65    18 1
    14    15     7 1
    15    15    33 1
    16    15    17 1
    17     7    64 1
    18     5     6 2
    19     5     1 1
    20     2     1 ar
    21     2    14 ar
    22    34    17 1
    23    19    18 1
    24    19    30 1
    25     1    13 ar
    26    18    36 1
    27    14     3 ar
    28    31    30 1
    29    31    32 2
    30    30    21 1
    31    32    20 1
    32    13     4 ar
    33    21    20 2
    34     3     4 ar
    35    20    10 1
    36     4    25 1
    37    10    22 ar
    38    10    24 ar
    39    22    11 ar
    40    24    12 ar
    41    11    26 1
    42    11    23 ar
    43    12    23 ar
    44     2    38 1
    45     3    39 1
    46     6    40 1
    47     7    41 1
    48     8    42 1
    49     9    43 1
    50    65    44 1
    51    65    45 1
    52    12    46 1
    53    13    47 1
    54    14    48 1
    55    15    49 1
    56    16    50 1
    57    17    51 1
    58    17    52 1
    59    18    53 1
    60    19    54 1
    61    19    55 1
    62    21    56 1
    63    22    57 1
    64    23    58 1
    65    24    59 1
    66    64    60 1
    67    34    61 1
    68    35    62 1
    69    36    63 1
@<TRIPOS>SUBSTRUCTURE
     1 J0T         1 TEMP              0 ****  ****    0 ROOT
