@<TRIPOS>MOLECULE
J0W
   53    57     1     0     0
SMALL
bcc


@<TRIPOS>ATOM
      1 C1           0.0000     0.0000     0.0000 c3         1 J0W      -0.116500
      2 C2           1.5300     0.0000     0.0000 c3         1 J0W      -0.094000
      3 C3           2.0400     0.0000     1.4420 c3         1 J0W      -0.116500
      4 C4           2.0390    -1.2510    -0.7210 c3         1 J0W      -0.105000
      5 N5           3.5030    -1.1930    -0.8270 n3         1 J0W      -0.047000
      6 C6           3.9200    -0.2310    -1.8590 c3         1 J0W      -0.112000
      7 C7           5.4090     0.0610    -1.6780 c3         1 J0W      -0.050000
      8 C8           6.1800    -1.2310    -1.5840 ca         1 J0W      -0.050000
      9 C9           7.5520    -1.1970    -1.7720 ca         1 J0W      -0.151000
     10 C10          8.2990    -2.3610    -1.6900 ca         1 J0W       0.067000
     11 C11          7.6660    -3.5660    -1.4160 ca         1 J0W      -0.147000
     12 C12          6.3000    -3.5970    -1.2310 ca         1 J0W      -0.071000
     13 C13          5.5520    -2.4290    -1.3140 ca         1 J0W      -0.065000
     14 C14          4.0620    -2.5190    -1.1130 c3         1 J0W       0.085000
     15 C15          3.4120    -3.0790    -2.3790 c3         1 J0W      -0.170000
     16 C16          3.7700    -3.4410     0.0430 c2         1 J0W      -0.204000
     17 C17          3.7200    -2.9370     1.3310 c2         1 J0W      -0.052000
     18 C18          3.4540    -3.7750     2.3920 c2         1 J0W      -0.226500
     19 C19          3.2350    -5.1380     2.1650 c3         1 J0W       0.119000
     20 C20          3.2880    -5.6400     0.8610 c2         1 J0W      -0.226500
     21 C21          3.5500    -4.7870    -0.1910 c2         1 J0W      -0.052000
     22 C22          2.9510    -6.0400     3.2930 c2         1 J0W      -0.103000
     23 C23          2.7410    -7.3540     3.0710 c2         1 J0W      -0.179000
     24 C24          2.4590    -8.2500     4.1910 c3         1 J0W       0.479000
     25 O25          2.4130    -7.8110     5.3250 o          1 J0W      -0.590000
     26 O26          2.2480    -9.5640     3.9680 o          1 J0W      -0.590000
     27 O27          9.6440    -2.3240    -1.8760 oh         1 J0W      -0.261000
     28 H11C        -0.3610    -0.8780     0.5210 hc         1 J0W       0.044500
     29 H12C        -0.3610     0.8900     0.5000 hc         1 J0W       0.044500
     30 H13C        -0.3610    -0.0120    -1.0210 hc         1 J0W       0.044500
     31 H2           1.8910     0.8840    -0.5110 hc         1 J0W       0.059000
     32 H31C         3.1220     0.0630     1.4420 hc         1 J0W       0.044500
     33 H32C         1.6290     0.8510     1.9700 hc         1 J0W       0.044500
     34 H33C         1.7320    -0.9140     1.9340 hc         1 J0W       0.044500
     35 H41C         1.7520    -2.1330    -0.1610 h1         1 J0W       0.066000
     36 H42C         1.6070    -1.2960    -1.7130 h1         1 J0W       0.066000
     37 H61C         3.3620     0.6880    -1.7290 h1         1 J0W       0.057500
     38 H62C         3.7640    -0.6730    -2.8360 h1         1 J0W       0.057500
     39 H71C         5.7620     0.6130    -2.5410 hc         1 J0W       0.060500
     40 H72C         5.5450     0.6150    -0.7570 hc         1 J0W       0.060500
     41 H9           8.0440    -0.2560    -1.9850 ha         1 J0W       0.108000
     42 H11          8.2440    -4.4800    -1.3510 ha         1 J0W       0.111000
     43 H27         10.0740    -2.2270    -1.0420 ho         1 J0W       0.197000
     44 H12          5.8070    -4.5370    -1.0170 ha         1 J0W       0.130000
     45 H151         2.3630    -3.2710    -2.1910 hc         1 J0W       0.056667
     46 H152         3.9040    -4.0020    -2.6590 hc         1 J0W       0.056667
     47 H153         3.5090    -2.3600    -3.1830 hc         1 J0W       0.056667
     48 H17          3.9210    -1.8880     1.5090 ha         1 J0W       0.107500
     49 H21          3.5830    -5.1720    -1.2030 ha         1 J0W       0.107500
     50 H18          3.4920    -3.3950     3.4060 ha         1 J0W       0.122500
     51 H20          3.0370    -6.6760     0.6690 ha         1 J0W       0.122500
     52 H22          3.9130    -5.9610     2.8010 DU         1 J0W       0.050000
     53 H23          1.7800    -7.4330     3.5640 DU         1 J0W       0.114000
@<TRIPOS>BOND
     1     1     2 1   
     2     1    28 1   
     3     1    29 1   
     4     1    30 1   
     5     2     3 1   
     6     2     4 1   
     7     2    31 1   
     8     3    32 1   
     9     3    33 1   
    10     3    34 1   
    11     4     5 1   
    12     4    35 1   
    13     4    36 1   
    14     5     6 1   
    15     5    14 1   
    16     6     7 1   
    17     6    37 1   
    18     6    38 1   
    19     7     8 1   
    20     7    39 1   
    21     7    40 1   
    22     8     9 1   
    23     8    13 1   
    24     9    10 1   
    25     9    41 1   
    26    10    11 1   
    27    10    27 1   
    28    11    12 1   
    29    11    42 1   
    30    12    13 1   
    31    12    44 1   
    32    13    14 1   
    33    14    15 1   
    34    14    16 1   
    35    15    45 1   
    36    15    46 1   
    37    15    47 1   
    38    16    17 1   
    39    16    21 1   
    40    17    18 1   
    41    17    48 1   
    42    18    19 1   
    43    18    50 1   
    44    19    20 1   
    45    19    22 1   
    46    19    52 1   
    47    20    21 1   
    48    20    51 1   
    49    21    49 1   
    50    22    23 1   
    51    22    52 1   
    52    23    24 1   
    53    23    53 1   
    54    24    25 1   
    55    24    26 1   
    56    24    53 1   
    57    27    43 1   
@<TRIPOS>SUBSTRUCTURE
     1 J0W         1 TEMP              0 ****  ****    0 ROOT
