@<TRIPOS>MOLECULE
molecule
   53    55     1     0     0
SMALL
bcc


@<TRIPOS>ATOM
      1 C1           0.0000     0.0000     0.0000 c3         1 J0W      -0.086600
      2 C2           1.5300     0.0000     0.0000 c3         1 J0W      -0.072700
      3 C3           2.0400     0.0000     1.4420 c3         1 J0W      -0.086600
      4 C4           2.0390    -1.2510    -0.7210 c3         1 J0W       0.160800
      5 N5           3.5030    -1.1930    -0.8270 n3         1 J0W      -0.710600
      6 C6           3.9200    -0.2310    -1.8590 c3         1 J0W       0.150800
      7 C7           5.4090     0.0610    -1.6780 c3         1 J0W      -0.031100
      8 C8           6.1800    -1.2310    -1.5840 ca         1 J0W      -0.057300
      9 C9           7.5520    -1.1970    -1.7720 ca         1 J0W      -0.161000
     10 C10          8.2990    -2.3610    -1.6900 ca         1 J0W       0.095100
     11 C11          7.6660    -3.5660    -1.4160 ca         1 J0W      -0.158000
     12 C12          6.3000    -3.5970    -1.2310 ca         1 J0W      -0.098000
     13 C13          5.5520    -2.4290    -1.3140 ca         1 J0W      -0.060300
     14 C14          4.0620    -2.5190    -1.1130 c3         1 J0W       0.278800
     15 C15          3.4120    -3.0790    -2.3790 c3         1 J0W      -0.120100
     16 C16          3.7700    -3.4410     0.0430 ca         1 J0W      -0.121300
     17 C17          3.7200    -2.9370     1.3310 ca         1 J0W      -0.118500
     18 C18          3.4540    -3.7750     2.3920 ca         1 J0W      -0.146500
     19 C19          3.2350    -5.1380     2.1650 ca         1 J0W      -0.004800
     20 C20          3.2880    -5.6400     0.8610 ca         1 J0W      -0.146500
     21 C21          3.5500    -4.7870    -0.1910 ca         1 J0W      -0.118500
     22 C22          2.9510    -6.0400     3.2930 ce         1 J0W      -0.184200
     23 C23          2.7410    -7.3540     3.0710 cf         1 J0W      -0.136200
     24 C24          2.4590    -8.2500     4.1910 c          1 J0W       0.864800
     25 O25          2.4130    -7.8110     5.3250 o          1 J0W      -0.837800
     26 O26          2.2480    -9.5640     3.9680 o          1 J0W      -0.837800
     27 O27          9.6440    -2.3240    -1.8760 oh         1 J0W      -0.525100
     28 H11C        -0.3610     0.8900     0.5010 hc         1 J0W       0.035033
     29 H12C        -0.3610    -0.0110    -1.0210 hc         1 J0W       0.035033
     30 H13C        -0.3610    -0.8790     0.5200 hc         1 J0W       0.035033
     31 H2           1.8910     0.8840    -0.5110 hc         1 J0W       0.039700
     32 H31C         3.1220     0.0630     1.4420 hc         1 J0W       0.035033
     33 H32C         1.6290     0.8520     1.9700 hc         1 J0W       0.035033
     34 H33C         1.7320    -0.9140     1.9350 hc         1 J0W       0.035033
     35 H41C         1.7530    -2.1320    -0.1600 h1         1 J0W       0.044700
     36 H42C         1.6070    -1.2980    -1.7130 h1         1 J0W       0.044700
     37 H61C         3.7640    -0.6730    -2.8360 h1         1 J0W       0.038700
     38 H62C         3.3620     0.6880    -1.7290 h1         1 J0W       0.038700
     39 H71C         5.5450     0.6140    -0.7570 hc         1 J0W       0.053700
     40 H72C         5.7620     0.6140    -2.5410 hc         1 J0W       0.053700
     41 H9           8.0440    -0.2560    -1.9850 ha         1 J0W       0.131000
     42 H11          8.2440    -4.4800    -1.3510 ha         1 J0W       0.138000
     43 H27          9.8420    -2.5070    -2.7790 ho         1 J0W       0.410000
     44 H12          5.8070    -4.5370    -1.0170 ha         1 J0W       0.153000
     45 H151         3.5080    -2.3590    -3.1830 hc         1 J0W       0.041367
     46 H152         2.3630    -3.2720    -2.1910 hc         1 J0W       0.041367
     47 H153         3.9050    -4.0020    -2.6600 hc         1 J0W       0.041367
     48 H17          3.9200    -1.8880     1.5080 ha         1 J0W       0.128500
     49 H21          3.5830    -5.1720    -1.2030 ha         1 J0W       0.128500
     50 H18          3.4940    -3.3950     3.4060 ha         1 J0W       0.138000
     51 H20          3.0370    -6.6760     0.6690 ha         1 J0W       0.138000
     52 H22          2.9110    -5.6490     4.3030 ha         1 J0W       0.153000
     53 H23          2.7810    -7.7450     2.0610 ha         1 J0W       0.103000
@<TRIPOS>BOND
     1     1     2 1
     2     2     3 1
     3     2     4 1
     4     4     5 1
     5     5     6 1
     6     5    14 1
     7     6     7 1
     8     7     8 1
     9     8     9 ar
    10     8    13 ar
    11     9    10 ar
    12    10    11 ar
    13    10    27 1
    14    11    12 ar
    15    12    13 ar
    16    13    14 1
    17    14    15 1
    18    14    16 1
    19    16    17 ar
    20    16    21 ar
    21    17    18 ar
    22    18    19 ar
    23    19    20 ar
    24    19    22 1
    25    20    21 ar
    26    22    23 2
    27    23    24 1
    28    24    25 1
    29    24    26 1
    30     1    28 1
    31     1    29 1
    32     1    30 1
    33     2    31 1
    34     3    32 1
    35     3    33 1
    36     3    34 1
    37     4    35 1
    38     4    36 1
    39     6    37 1
    40     6    38 1
    41     7    39 1
    42     7    40 1
    43     9    41 1
    44    11    42 1
    45    27    43 1
    46    12    44 1
    47    15    45 1
    48    15    46 1
    49    15    47 1
    50    17    48 1
    51    21    49 1
    52    18    50 1
    53    20    51 1
    54    22    52 1
    55    23    53 1
@<TRIPOS>SUBSTRUCTURE
     1 J0W         1 TEMP              0 ****  ****    0 ROOT
