@<TRIPOS>MOLECULE
molecule
   40    41     1     0     0
SMALL
bcc


@<TRIPOS>ATOM
      1 FBA          0.0000     0.0000     0.0000 f          1 J0Y      -0.207633
      2 CAZ          1.3990     0.0000     0.0000 c3         1 J0Y       0.606900
      3 FBB          1.8650     0.0000     1.3190 f          1 J0Y      -0.207633
      4 FBC          1.8650    -1.1430    -0.6580 f          1 J0Y      -0.207633
      5 CAQ          1.9090     1.2490    -0.7210 c3         1 J0Y       0.063600
      6 FAY          1.4430     2.3910    -0.0620 f          1 J0Y      -0.182300
      7 CAP          1.4070     1.2490    -2.1420 c          1 J0Y       0.645100
      8 OAR          0.2490     0.9760    -2.3760 o          1 J0Y      -0.553100
      9 N            2.2460     1.5500    -3.1530 ns         1 J0Y      -0.550900
     10 CA           1.7580     1.5490    -4.5350 c3         1 J0Y       0.107000
     11 C            1.1330     2.8840    -4.8470 c          1 J0Y       0.659100
     12 O            1.0980     3.7510    -3.9990 o          1 J0Y      -0.554100
     13 NAS          0.6120     3.1150    -6.0680 ns         1 J0Y      -0.465400
     14 OAU          0.0240     4.3700    -6.3620 oh         1 J0Y      -0.355100
     15 CAJ          2.9100     1.3020    -5.4740 ca         1 J0Y      -0.106300
     16 CAK          2.7370     0.4830    -6.5750 ca         1 J0Y      -0.116000
     17 CAL          3.7880     0.2520    -7.4390 ca         1 J0Y      -0.106000
     18 CAI          4.1340     1.8990    -5.2360 ca         1 J0Y      -0.116000
     19 CAH          5.1930     1.6760    -6.0930 ca         1 J0Y      -0.106000
     20 CAG          5.0260     0.8470    -7.2010 cp         1 J0Y      -0.030000
     21 CAC          6.1600     0.6020    -8.1250 cp         1 J0Y      -0.002000
     22 CAB          7.3970     1.1970    -7.8850 ca         1 J0Y      -0.154500
     23 CAA          8.4510     0.9670    -8.7490 ca         1 J0Y       0.128900
     24 FAV          9.6520     1.5440    -8.5170 f          1 J0Y      -0.116900
     25 CAF          8.2790     0.1460    -9.8520 ca         1 J0Y       0.063900
     26 FAW          9.3110    -0.0720   -10.6970 f          1 J0Y      -0.110900
     27 CAE          7.0500    -0.4480   -10.0940 ca         1 J0Y       0.128900
     28 FAX          6.8870    -1.2490   -11.1710 f          1 J0Y      -0.116900
     29 CAD          5.9930    -0.2270    -9.2310 ca         1 J0Y      -0.154500
     30 H1           2.9930     1.2490    -0.7210 h1         1 J0Y       0.083700
     31 H2           3.2080     1.7500    -2.9620 hn         1 J0Y       0.328500
     32 H3           1.0180     0.7670    -4.6560 h1         1 J0Y       0.103700
     33 H4           0.6050     2.3870    -6.7540 hn         1 J0Y       0.319500
     34 H5          -0.5000     4.2970    -7.1420 ho         1 J0Y       0.400000
     35 H6           1.7740     0.0210    -6.7590 ha         1 J0Y       0.139000
     36 H7           3.6520    -0.3920    -8.3000 ha         1 J0Y       0.142500
     37 H8           4.2620     2.5440    -4.3750 ha         1 J0Y       0.139000
     38 H9           6.1520     2.1430    -5.9040 ha         1 J0Y       0.142500
     39 H10          7.5180     1.8800    -7.0530 ha         1 J0Y       0.159500
     40 H11          5.0320    -0.6920    -9.4200 ha         1 J0Y       0.159500
@<TRIPOS>BOND
     1    26    25 1
     2    28    27 1
     3    25    27 ar
     4    25    23 ar
     5    24    23 1
     6    27    29 ar
     7    23    22 ar
     8    29    21 ar
     9    22    21 ar
    10    21    20 1
    11    20    17 ar
    12    20    19 ar
    13    17    16 ar
    14    19    18 ar
    15    16    15 ar
    16    18    15 ar
    17    15    10 1
    18    10     9 1
    19    10    11 1
    20     8     7 2
    21     9     7 1
    22     7     5 1
    23     5     6 1
    24     5     2 1
    25    11    12 2
    26    11    13 1
    27    13    14 1
    28     3     2 1
    29     2     4 1
    30     2     1 1
    31     5    30 1
    32     9    31 1
    33    10    32 1
    34    13    33 1
    35    14    34 1
    36    16    35 1
    37    17    36 1
    38    18    37 1
    39    19    38 1
    40    22    39 1
    41    29    40 1
@<TRIPOS>SUBSTRUCTURE
     1 J0Y         1 TEMP              0 ****  ****    0 ROOT
