@<TRIPOS>MOLECULE
J0Z
   21    21     1     0     0
SMALL
bcc


@<TRIPOS>ATOM
      1 CAA         0.0710   -0.0080   -0.1010 c3        1 J0Z     -0.150100
      2 CAJ         1.5500   -0.0010    0.0720 c         1 J0Z      0.630100
      3 OAB         2.2040    0.0070    1.1170 o         1 J0Z     -0.545000
      4 OAI         2.2240   -0.0050   -1.1180 os        1 J0Z     -0.438900
      5 CAH         3.6630    0.0020   -1.0380 c3        1 J0Z      0.185700
      6 CAK         4.1790   -0.0010   -2.4380 ca        1 J0Z     -0.095300
      7 CAF         4.4320    1.2080   -3.0950 ca        1 J0Z     -0.106000
      8 CAD         4.9440    1.2040   -4.3920 ca        1 J0Z     -0.135000
      9 CAC         5.2000   -0.0050   -5.0390 ca        1 J0Z     -0.119000
     10 CAE         4.9430   -1.2110   -4.3880 ca        1 J0Z     -0.135000
     11 CAG         4.4320   -1.2110   -3.0910 ca        1 J0Z     -0.106000
     12 HAA        -0.4190   -0.0070    0.9020 hc        1 J0Z      0.076367
     13 HAAA       -0.2440    0.8960   -0.6760 hc        1 J0Z      0.076367
     14 HAAB       -0.2360   -0.9190   -0.6700 hc        1 J0Z      0.076367
     15 HAH         3.9840    0.9190   -0.4770 h1        1 J0Z      0.058700
     16 HAHA        3.9920   -0.9100   -0.4710 h1        1 J0Z      0.058700
     17 HAF         4.2250    2.1610   -2.5860 ha        1 J0Z      0.135000
     18 HAD         5.1430    2.1560   -4.9050 ha        1 J0Z      0.133000
     19 HAC         5.6040   -0.0060   -6.0620 ha        1 J0Z      0.132000
     20 HAE         5.1430   -2.1650   -4.8980 ha        1 J0Z      0.133000
     21 HAG         4.2250   -2.1630   -2.5790 ha        1 J0Z      0.135000
@<TRIPOS>BOND
     1    1    2 1   
     2    1   12 1   
     3    1   13 1   
     4    1   14 1   
     5    2    3 2   
     6    2    4 1   
     7    4    5 1   
     8    5    6 1   
     9    5   15 1   
    10    5   16 1   
    11    6    7 ar  
    12    6   11 ar  
    13    7    8 ar  
    14    7   17 1   
    15    8    9 ar  
    16    8   18 1   
    17    9   10 ar  
    18    9   19 1   
    19   10   11 ar  
    20   10   20 1   
    21   11   21 1   
@<TRIPOS>SUBSTRUCTURE
     1 J0Z         1 TEMP              0 ****  ****    0 ROOT
