@<TRIPOS>MOLECULE
molecule
   21    21     1     0     0
SMALL
bcc


@<TRIPOS>ATOM
      1 CAA          0.0000     0.0000     0.0000 c3         1 J0Z      -0.139100
      2 CAJ          1.5070     0.0000     0.0000 c          1 J0Z       0.629100
      3 OAB          2.1110     0.0000     1.0460 o          1 J0Z      -0.553000
      4 OAI          2.1770    -0.0010    -1.1630 os         1 J0Z      -0.426900
      5 CAH          3.6270    -0.0020    -1.0880 c3         1 J0Z       0.196700
      6 CAK          4.2030    -0.0040    -2.4810 ca         1 J0Z      -0.098300
      7 CAF          4.4680     1.1930    -3.1200 ca         1 J0Z      -0.104000
      8 CAD          4.9950     1.1920    -4.3970 ca         1 J0Z      -0.132000
      9 CAC          5.2600    -0.0060    -5.0360 ca         1 J0Z      -0.117000
     10 CAE          4.9950    -1.2020    -4.3960 ca         1 J0Z      -0.132000
     11 CAG          4.4720    -1.2010    -3.1150 ca         1 J0Z      -0.104000
     12 HAA         -0.3610     0.8820    -0.5150 hc         1 J0Z       0.069033
     13 HAAA        -0.3610    -0.8870    -0.5060 hc         1 J0Z       0.069033
     14 HAAB        -0.3610     0.0050     1.0210 hc         1 J0Z       0.069033
     15 HAH          3.9610    -0.8860    -0.5590 h1         1 J0Z       0.055700
     16 HAHA         3.9620     0.8830    -0.5600 h1         1 J0Z       0.055700
     17 HAF          4.2610     2.1320    -2.6200 ha         1 J0Z       0.133000
     18 HAD          5.2030     2.1300    -4.8980 ha         1 J0Z       0.132000
     19 HAC          5.6710    -0.0060    -6.0380 ha         1 J0Z       0.131000
     20 HAE          5.2040    -2.1410    -4.8950 ha         1 J0Z       0.132000
     21 HAG          4.2650    -2.1390    -2.6140 ha         1 J0Z       0.133000
@<TRIPOS>BOND
     1     1     2 1
     2     2     3 2
     3     2     4 1
     4     4     5 1
     5     5     6 1
     6     6     7 ar
     7     6    11 ar
     8     7     8 ar
     9     8     9 ar
    10     9    10 ar
    11    10    11 ar
    12     1    12 1
    13     1    13 1
    14     1    14 1
    15     5    15 1
    16     5    16 1
    17     7    17 1
    18     8    18 1
    19     9    19 1
    20    10    20 1
    21    11    21 1
@<TRIPOS>SUBSTRUCTURE
     1 J0Z         1 TEMP              0 ****  ****    0 ROOT
