@<TRIPOS>MOLECULE
molecule
   57    59     1     0     0
SMALL
bcc


@<TRIPOS>ATOM
      1 C1           0.0000     0.0000     0.0000 c3         1 J11       0.152800
      2 N1           1.4690     0.0000     0.0000 n7         1 J11      -0.813200
      3 C2          -0.5090    -0.0000    -1.4430 c3         1 J11       0.155800
      4 N2          -1.9780    -0.0010    -1.4440 n7         1 J11      -0.824200
      5 C3          -2.5030    -0.0010    -2.8150 c3         1 J11       0.161800
      6 C4          -4.0330    -0.0010    -2.7760 c3         1 J11      -0.038100
      7 N1'          3.5090    -1.8390     1.6330 n7         1 J11      -0.798200
      8 C11         -4.5720    -0.0010    -4.1830 ca         1 J11      -0.058300
      9 N11          5.9700     1.5800     2.4580 nb         1 J11      -0.775000
     10 C12         -4.8200    -1.1990    -4.8270 ca         1 J11      -0.164000
     11 C13         -5.3160    -1.1990    -6.1200 ca         1 J11       0.135900
     12 F13         -5.5590    -2.3680    -6.7510 f          1 J11      -0.140900
     13 C14         -5.5630     0.0010    -6.7650 ca         1 J11      -0.171000
     14 C15         -5.3160     1.1970    -6.1190 ca         1 J11      -0.101000
     15 C16         -4.8250     1.1960    -4.8260 ca         1 J11      -0.142000
     16 C2'          2.1040    -1.4450     1.9050 c3         1 J11       0.100800
     17 C21          4.9210     2.3470     2.2320 ca         1 J11       0.480600
     18 C3'          1.9950     0.0000     1.3720 c3         1 J11       0.165500
     19 C31          5.0730     3.6820     1.9160 ca         1 J11      -0.309300
     20 C4'          3.4380     0.5440     1.3930 c3         1 J11      -0.059700
     21 C41          6.3500     4.2200     1.8360 ca         1 J11      -0.003300
     22 C5'          4.2970    -0.6170     1.9360 c3         1 J11       0.149800
     23 C51          7.4320     3.3920     2.0780 ca         1 J11      -0.328300
     24 C61          7.2040     2.0560     2.3920 ca         1 J11       0.711200
     25 N61          8.2820     1.2130     2.6370 nv         1 J11      -1.015500
     26 C71          3.5360     1.7570     2.3210 c3         1 J11      -0.120700
     27 C81          6.5540     5.6730     1.4930 c3         1 J11      -0.050800
     28 H1          -0.3610     0.8850     0.5100 h1         1 J11       0.036200
     29 H1A         -0.3610    -0.8840     0.5110 h1         1 J11       0.036200
     30 HN1          1.8030    -0.8090    -0.4850 hn         1 J11       0.369800
     31 H2          -0.1480     0.8840    -1.9530 h1         1 J11       0.040700
     32 H2A         -0.1480    -0.8850    -1.9530 h1         1 J11       0.040700
     33 HN2         -2.3120     0.8090    -0.9590 hn         1 J11       0.350800
     34 H3          -2.1550     0.8820    -3.3360 h1         1 J11       0.038200
     35 H3A         -2.1560    -0.8870    -3.3340 h1         1 J11       0.038200
     36 H4          -4.3810     0.8840    -2.2570 hc         1 J11       0.057700
     37 H4A         -4.3810    -0.8850    -2.2550 hc         1 J11       0.057700
     38 HN1'         3.7770    -2.5730     2.2590 hn         1 J11       0.344800
     39 H12         -4.6230    -2.1360    -4.3210 ha         1 J11       0.148000
     40 H14         -5.9500     0.0030    -7.7770 ha         1 J11       0.144000
     41 H15         -5.5120     2.1360    -6.6230 ha         1 J11       0.136000
     42 H16         -4.6310     2.1340    -4.3190 ha         1 J11       0.134000
     43 H2'          1.9060    -1.4690     2.9700 h1         1 J11       0.040200
     44 H2'A         1.4200    -2.0950     1.3720 h1         1 J11       0.040200
     45 H3'          1.3630     0.5920     2.0230 h1         1 J11       0.059700
     46 H31          4.2050     4.3040     1.7320 ha         1 J11       0.137000
     47 H4'          3.7540     0.8050     0.3900 hc         1 J11       0.083700
     48 H5'          4.4360    -0.5150     3.0060 h1         1 J11       0.052200
     49 H5'A         5.2520    -0.6490     1.4260 h1         1 J11       0.052200
     50 H51          8.4420     3.7790     2.0240 ha         1 J11       0.133000
     51 HN61         9.2170     1.5680     2.5920 hn         1 J11       0.438300
     52 HN6A         8.1230     0.2530     2.8730 hn         1 J11       0.438300
     53 H71          3.3390     1.4490     3.3400 hc         1 J11       0.056200
     54 H71A         2.8070     2.5010     2.0210 hc         1 J11       0.056200
     55 H81          6.0900     6.2920     2.2510 hc         1 J11       0.047367
     56 H81A         7.6150     5.8880     1.4510 hc         1 J11       0.047367
     57 H81B         6.1040     5.8830     0.5300 hc         1 J11       0.047367
@<TRIPOS>BOND
     1     1     2 1
     2     1     3 1
     3     2    18 1
     4     3     4 1
     5     4     5 1
     6     5     6 1
     7     6     8 1
     8     7    16 1
     9     7    22 1
    10     8    10 ar
    11     8    15 ar
    12     9    17 ar
    13     9    24 ar
    14    10    11 ar
    15    11    12 1
    16    11    13 ar
    17    13    14 ar
    18    14    15 ar
    19    16    18 1
    20    17    19 ar
    21    17    26 1
    22    18    20 1
    23    19    21 ar
    24    20    22 1
    25    20    26 1
    26    21    23 ar
    27    21    27 1
    28    23    24 ar
    29    24    25 1
    30     1    28 1
    31     1    29 1
    32     2    30 1
    33     3    31 1
    34     3    32 1
    35     4    33 1
    36     5    34 1
    37     5    35 1
    38     6    36 1
    39     6    37 1
    40     7    38 1
    41    10    39 1
    42    13    40 1
    43    14    41 1
    44    15    42 1
    45    16    43 1
    46    16    44 1
    47    18    45 1
    48    19    46 1
    49    20    47 1
    50    22    48 1
    51    22    49 1
    52    23    50 1
    53    25    51 1
    54    25    52 1
    55    26    53 1
    56    26    54 1
    57    27    55 1
    58    27    56 1
    59    27    57 1
@<TRIPOS>SUBSTRUCTURE
     1 J11         1 TEMP              0 ****  ****    0 ROOT
