@<TRIPOS>MOLECULE
J11
   57    59     1     0     0
SMALL
bcc


@<TRIPOS>ATOM
      1 C1           0.0000     0.0000     0.0000 c3         1 J11       0.137800
      2 N1           1.4690     0.0000     0.0000 n7         1 J11      -0.581200
      3 C2          -0.5090    -0.0000    -1.4430 c3         1 J11       0.141800
      4 N2          -1.9780    -0.0010    -1.4440 n7         1 J11      -0.588200
      5 C3          -2.5030    -0.0010    -2.8150 c3         1 J11       0.146800
      6 C4          -4.0330    -0.0010    -2.7760 c3         1 J11       0.026900
      7 N1'          3.5090    -1.8390     1.6330 n7         1 J11      -0.587200
      8 C11         -4.5720    -0.0010    -4.1830 ca         1 J11      -0.063300
      9 N11          5.9700     1.5800     2.4580 nb         1 J11      -0.660000
     10 C12         -4.8200    -1.1990    -4.8270 ca         1 J11      -0.129000
     11 C13         -5.3160    -1.1990    -6.1200 ca         1 J11       0.107900
     12 F13         -5.5590    -2.3680    -6.7510 f          1 J11      -0.128900
     13 C14         -5.5630     0.0010    -6.7650 ca         1 J11      -0.137000
     14 C15         -5.3160     1.1970    -6.1190 ca         1 J11      -0.072000
     15 C16         -4.8250     1.1960    -4.8260 ca         1 J11      -0.113000
     16 C2'          2.1040    -1.4450     1.9050 c3         1 J11       0.107800
     17 C21          4.9210     2.3470     2.2320 ca         1 J11       0.432600
     18 C3'          1.9950     0.0000     1.3720 c3         1 J11       0.115500
     19 C31          5.0730     3.6820     1.9160 ca         1 J11      -0.288300
     20 C4'          3.4380     0.5440     1.3930 c3         1 J11      -0.041700
     21 C41          6.3500     4.2200     1.8360 ca         1 J11      -0.003300
     22 C5'          4.2970    -0.6170     1.9360 c3         1 J11       0.141800
     23 C51          7.4320     3.3920     2.0780 ca         1 J11      -0.312300
     24 C61          7.2040     2.0560     2.3920 ca         1 J11       0.516200
     25 N61          8.2820     1.2130     2.6370 nv         1 J11      -0.535500
     26 C71          3.5360     1.7570     2.3210 c3         1 J11      -0.066700
     27 C81          6.5540     5.6730     1.4930 c3         1 J11       0.060200
     28 H1          -0.3610     0.8850     0.5100 h1         1 J11       0.010700
     29 H1A         -0.3610    -0.8840     0.5110 h1         1 J11       0.010700
     30 HN1          1.8030    -0.8090    -0.4850 hn         1 J11       0.270800
     31 H2          -0.1480     0.8840    -1.9530 h1         1 J11       0.012700
     32 H2A         -0.1480    -0.8850    -1.9530 h1         1 J11       0.012700
     33 HN2         -2.3120     0.8090    -0.9590 hn         1 J11       0.251800
     34 H3          -2.1550     0.8820    -3.3360 h1         1 J11       0.010700
     35 H3A         -2.1560    -0.8870    -3.3340 h1         1 J11       0.010700
     36 H4          -4.3810     0.8840    -2.2570 hc         1 J11       0.024700
     37 H4A         -4.3810    -0.8850    -2.2550 hc         1 J11       0.024700
     38 HN1'         3.7770    -2.5730     2.2590 hn         1 J11       0.251800
     39 H12         -4.6230    -2.1360    -4.3210 ha         1 J11       0.124000
     40 H14         -5.9500     0.0030    -7.7770 ha         1 J11       0.118000
     41 H15         -5.5120     2.1360    -6.6230 ha         1 J11       0.106000
     42 H16         -4.6310     2.1340    -4.3190 ha         1 J11       0.109000
     43 H2'          1.9060    -1.4690     2.9700 h1         1 J11       0.013700
     44 H2'A         1.4200    -2.0950     1.3720 h1         1 J11       0.013700
     45 H3'          1.3630     0.5920     2.0230 h1         1 J11       0.037700
     46 H31          4.2050     4.3040     1.7320 ha         1 J11       0.120000
     47 H4'          3.7540     0.8050     0.3900 hc         1 J11       0.053700
     48 H5'          4.4360    -0.5150     3.0060 h1         1 J11       0.024200
     49 H5'A         5.2520    -0.6490     1.4260 h1         1 J11       0.024200
     50 H51          8.4420     3.7790     2.0240 ha         1 J11       0.119000
     51 HN61         9.2170     1.5680     2.5920 hn         1 J11       0.269800
     52 HN6A         8.1230     0.2530     2.8730 hn         1 J11       0.269800
     53 H71          3.3390     1.4490     3.3400 hc         1 J11       0.023700
     54 H71A         2.8070     2.5010     2.0210 hc         1 J11       0.023700
     55 H81          6.0900     6.2920     2.2510 hc         1 J11       0.010033
     56 H81A         7.6150     5.8880     1.4510 hc         1 J11       0.010033
     57 H81B         6.1040     5.8830     0.5300 hc         1 J11       0.010033
@<TRIPOS>BOND
     1     1     2 1   
     2     1     3 1   
     3     1    28 1   
     4     1    29 1   
     5     2    18 1   
     6     2    30 1   
     7     3     4 1   
     8     3    31 1   
     9     3    32 1   
    10     4     5 1   
    11     4    33 1   
    12     5     6 1   
    13     5    34 1   
    14     5    35 1   
    15     6     8 1   
    16     6    36 1   
    17     6    37 1   
    18     7    16 1   
    19     7    22 1   
    20     7    38 1   
    21     8    10 ar  
    22     8    15 ar  
    23     9    17 ar  
    24     9    24 ar  
    25    10    11 ar  
    26    10    39 1   
    27    11    12 1   
    28    11    13 ar  
    29    13    14 ar  
    30    13    40 1   
    31    14    15 ar  
    32    14    41 1   
    33    15    42 1   
    34    16    18 1   
    35    16    43 1   
    36    16    44 1   
    37    17    19 ar  
    38    17    26 1   
    39    18    20 1   
    40    18    45 1   
    41    19    21 ar  
    42    19    46 1   
    43    20    22 1   
    44    20    26 1   
    45    20    47 1   
    46    21    23 ar  
    47    21    27 1   
    48    22    48 1   
    49    22    49 1   
    50    23    24 ar  
    51    23    50 1   
    52    24    25 1   
    53    25    51 1   
    54    25    52 1   
    55    26    53 1   
    56    26    54 1   
    57    27    55 1   
    58    27    56 1   
    59    27    57 1   
@<TRIPOS>SUBSTRUCTURE
     1 J11         1 TEMP              0 ****  ****    0 ROOT
