@<TRIPOS>MOLECULE
J12
   87    90     1     0     0
SMALL
bcc


@<TRIPOS>ATOM
      1 C1           0.0000     0.0000     0.0000 c3         1 J12       0.365900
      2 O1          -0.4920    -1.2450     0.4930 os         1 J12      -0.328900
      3 C7          -1.6880    -1.6750    -0.0150 ca         1 J12       0.147100
      4 C8          -1.7540    -2.8900    -0.6900 ca         1 J12      -0.145000
      5 C9          -2.9730    -3.3290    -1.2060 ca         1 J12      -0.058400
      6 C10         -4.1200    -2.5510    -1.0460 ca         1 J12      -0.107000
      7 C11         -4.0470    -1.3340    -0.3680 ca         1 J12      -0.114600
      8 C12         -2.8280    -0.8950     0.1490 ca         1 J12      -0.171000
      9 C13         -5.2420    -0.5220    -0.2000 c          1 J12       0.612700
     10 O17         -6.1840    -0.6120    -1.0070 o          1 J12      -0.637100
     11 N18         -5.2820     0.3300     0.9110 ns         1 J12      -0.221900
     12 C19         -6.4080     1.1790     1.2260 c3         1 J12       0.063000
     13 C20         -6.2990     2.5580     0.5810 c3         1 J12      -0.061400
     14 C21         -5.0750     3.3540     1.0270 c3         1 J12       0.149800
     15 N22         -4.9820     4.6570     0.3710 n3         1 J12      -0.524600
     16 C23         -6.1230     5.5060     0.7320 c3         1 J12       0.150300
     17 C24         -6.0260     6.8730     0.0460 c3         1 J12       0.153300
     18 N25         -4.7630     7.5400     0.3850 n3         1 J12      -0.564600
     19 C26         -3.6220     6.6900     0.0240 c3         1 J12       0.153300
     20 C27         -3.7200     5.3240     0.7120 c3         1 J12       0.150300
     21 C28         -4.6700     8.8410    -0.2740 c3         1 J12       0.166800
     22 C35         -5.7530     9.8120     0.1930 c3         1 J12      -0.024400
     23 C36         -5.7310    10.0840     1.6960 c3         1 J12      -0.079200
     24 N37         -6.7450    11.0190     2.1010 nz         1 J12       0.112400
     25 N40         -3.0450    -4.5450    -1.8850 ns         1 J12      -0.069100
     26 C41         -2.0090    -5.4580    -2.1450 c          1 J12       0.590100
     27 O44         -0.8330    -5.3430    -1.8150 o          1 J12      -0.577100
     28 C2           1.5310     0.0000     0.0000 c3         1 J12       0.154100
     29 O2           2.0010    -1.1440    -0.7050 oh         1 J12      -0.562800
     30 C3           2.0700     0.0000     1.4310 c3         1 J12       0.167100
     31 O3           3.4870     0.1370     1.3980 oh         1 J12      -0.572800
     32 C4           1.4510     1.1490     2.2290 c3         1 J12       0.148100
     33 O4           1.9100     2.3980     1.7040 oh         1 J12      -0.569800
     34 C5          -0.0800     1.1020     2.1290 c3         1 J12       0.144100
     35 C6          -0.7430     2.2960     2.8070 c3         1 J12       0.226400
     36 O6          -2.1470     2.1780     2.6580 oh         1 J12      -0.589800
     37 O5          -0.4990     1.1070     0.7550 os         1 J12      -0.394600
     38 S           -1.0160    -8.7790    -3.8480 ss         1 J12      -0.183800
     39 C42         -2.5220    -6.6630    -2.9180 c3         1 J12      -0.013100
     40 C43         -1.7930    -7.9390    -2.5920 cc         1 J12      -0.039400
     41 C44         -1.6670    -8.5360    -1.3750 cd         1 J12      -0.096000
     42 C45         -0.9030    -9.7340    -1.4660 cd         1 J12      -0.116000
     43 C46         -0.4860    -9.9850    -2.7540 cc         1 J12      -0.036100
     44 H1          -0.3340     0.1170    -1.0240 h2         1 J12       0.031700
     45 H8          -0.8620    -3.4920    -0.8140 ha         1 J12       0.170000
     46 H10         -5.0660    -2.8920    -1.4470 ha         1 J12       0.129000
     47 H12         -2.7700     0.0500     0.6750 ha         1 J12       0.135000
     48 H18         -4.4890     0.3480     1.5210 hn         1 J12       0.184500
     49 H191        -7.3150     0.7010     0.8790 h1         1 J12       0.024200
     50 H192        -6.4650     1.3000     2.3010 h1         1 J12       0.024200
     51 H201        -6.2560     2.4340    -0.4950 hc         1 J12       0.028200
     52 H202        -7.1880     3.1260     0.8280 hc         1 J12       0.028200
     53 H211        -5.1280     3.5050     2.0990 h1         1 J12       0.015700
     54 H212        -4.1840     2.7820     0.7980 h1         1 J12       0.015700
     55 H231        -6.1340     5.6480     1.8060 h1         1 J12       0.020450
     56 H232        -7.0400     5.0180     0.4230 h1         1 J12       0.020450
     57 H241        -6.8530     7.4930     0.3720 h1         1 J12       0.015200
     58 H242        -6.0790     6.7360    -1.0270 h1         1 J12       0.015200
     59 H261        -2.7050     7.1770     0.3330 h1         1 J12       0.015200
     60 H262        -3.6110     6.5470    -1.0490 h1         1 J12       0.015200
     61 H271        -3.6700     5.4620     1.7850 h1         1 J12       0.020450
     62 H272        -2.8920     4.7030     0.3880 h1         1 J12       0.020450
     63 H281        -3.6990     9.2720    -0.0620 h1         1 J12       0.030200
     64 H282        -4.7650     8.6990    -1.3430 h1         1 J12       0.030200
     65 H351        -5.6220    10.7520    -0.3300 hc         1 J12       0.030700
     66 H352        -6.7210     9.4020    -0.0690 hc         1 J12       0.030700
     67 H361        -4.7600    10.4830     1.9650 hx         1 J12       0.093700
     68 H362        -5.8850     9.1510     2.2230 hx         1 J12       0.093700
     69 H371        -6.6920    11.1590     3.0910 hn         1 J12       0.218133
     70 H372        -6.6010    11.8910     1.6330 hn         1 J12       0.218133
     71 H40         -3.9490    -4.8000    -2.2310 hn         1 J12       0.170500
     72 H2           1.8790     0.8940    -0.5030 h1         1 J12       0.036700
     73 HO2          2.3310    -0.8800    -1.5480 ho         1 J12       0.395000
     74 H3           1.8100    -0.9390     1.9050 h1         1 J12       0.025700
     75 HO3          3.8800    -0.5390     1.9260 ho         1 J12       0.395000
     76 H4           1.7440     1.0620     3.2690 h1         1 J12       0.006700
     77 HO4          2.4970     2.8020     2.3210 ho         1 J12       0.391000
     78 H5          -0.4300     0.1900     2.5970 h1         1 J12       0.029700
     79 H61         -0.4040     3.2140     2.3420 h1         1 J12       0.003700
     80 H62         -0.4880     2.3060     3.8600 h1         1 J12       0.003700
     81 HO6         -2.5610     2.2710     3.5000 ho         1 J12       0.383000
     82 H421        -3.5730    -6.7960    -2.6930 hc         1 J12       0.037200
     83 H422        -2.4160    -6.4650    -3.9780 hc         1 J12       0.037200
     84 H44         -2.0940    -8.1500    -0.4570 ha         1 J12       0.124000
     85 H45         -0.6760   -10.3730    -0.6200 ha         1 J12       0.125000
     86 H46          0.1080   -10.8450    -3.0420 h4         1 J12       0.149000
     87 H373        -7.6470    10.6570     1.8630 hn         1 J12       0.218133
@<TRIPOS>BOND
     1     1     2 1   
     2     1    28 1   
     3     1    37 1   
     4     1    44 1   
     5     2     3 1   
     6     3     4 ar  
     7     3     8 ar  
     8     4     5 ar  
     9     4    45 1   
    10     5     6 ar  
    11     5    25 1   
    12     6     7 ar  
    13     6    46 1   
    14     7     8 ar  
    15     7     9 1   
    16     8    47 1   
    17     9    10 2   
    18     9    11 1   
    19    11    12 1   
    20    11    48 1   
    21    12    13 1   
    22    12    49 1   
    23    12    50 1   
    24    13    14 1   
    25    13    51 1   
    26    13    52 1   
    27    14    15 1   
    28    14    53 1   
    29    14    54 1   
    30    15    16 1   
    31    15    20 1   
    32    16    17 1   
    33    16    55 1   
    34    16    56 1   
    35    17    18 1   
    36    17    57 1   
    37    17    58 1   
    38    18    19 1   
    39    18    21 1   
    40    19    20 1   
    41    19    59 1   
    42    19    60 1   
    43    20    61 1   
    44    20    62 1   
    45    21    22 1   
    46    21    63 1   
    47    21    64 1   
    48    22    23 1   
    49    22    65 1   
    50    22    66 1   
    51    23    24 1   
    52    23    67 1   
    53    23    68 1   
    54    24    69 1   
    55    24    70 1   
    56    24    87 1   
    57    25    26 1   
    58    25    71 1   
    59    26    27 2   
    60    26    39 1   
    61    28    29 1   
    62    28    30 1   
    63    28    72 1   
    64    29    73 1   
    65    30    31 1   
    66    30    32 1   
    67    30    74 1   
    68    31    75 1   
    69    32    33 1   
    70    32    34 1   
    71    32    76 1   
    72    33    77 1   
    73    34    35 1   
    74    34    37 1   
    75    34    78 1   
    76    35    36 1   
    77    35    79 1   
    78    35    80 1   
    79    36    81 1   
    80    38    40 1   
    81    38    43 1   
    82    39    40 1   
    83    39    82 1   
    84    39    83 1   
    85    40    41 2   
    86    41    42 1   
    87    41    84 1   
    88    42    43 2   
    89    42    85 1   
    90    43    86 1   
@<TRIPOS>SUBSTRUCTURE
     1 J12         1 TEMP              0 ****  ****    0 ROOT
