@<TRIPOS>MOLECULE
J14
   57    59     1     0     0
SMALL
bcc


@<TRIPOS>ATOM
      1 C1           0.0000     0.0000     0.0000 c3         1 J14       0.137800
      2 N1           1.4690     0.0000     0.0000 n7         1 J14      -0.577200
      3 C2          -0.5110    -0.0010    -1.4420 c3         1 J14       0.141800
      4 N2          -1.9800     0.0000    -1.4410 n7         1 J14      -0.589200
      5 C3          -2.5070     0.0000    -2.8130 c3         1 J14       0.146800
      6 C4          -4.0370    -0.0010    -2.7710 c3         1 J14       0.027900
      7 N1'          3.5350     1.6970     2.1730 n7         1 J14      -0.579200
      8 C11         -4.5770    -0.0010    -4.1780 ca         1 J14      -0.063300
      9 N11          5.5010    -2.4790     0.5890 nb         1 J14      -0.626000
     10 C12         -4.8250    -1.1970    -4.8220 ca         1 J14      -0.132000
     11 C13         -5.3220    -1.1970    -6.1140 ca         1 J14       0.106900
     12 F13         -5.5650    -2.3660    -6.7450 f          1 J14      -0.128900
     13 C14         -5.5710     0.0030    -6.7590 ca         1 J14      -0.137000
     14 C15         -5.3220     1.1990    -6.1120 ca         1 J14      -0.072000
     15 C16         -4.8300     1.1970    -4.8210 ca         1 J14      -0.110000
     16 C2'          2.1040     1.4420     1.9020 c3         1 J14       0.110800
     17 C21          4.8650    -2.5460     1.7440 ca         1 J14       0.415600
     18 C3'          1.9960     0.0000     1.3720 c3         1 J14       0.109500
     19 C31          5.4680    -3.1050     2.8530 ca         1 J14      -0.271300
     20 C4'          3.4420    -0.5470     1.3900 c3         1 J14      -0.042700
     21 C41          6.7600    -3.6020     2.7470 ca         1 J14      -0.020300
     22 C5'          4.1440     0.3670     2.4260 c3         1 J14       0.137800
     23 C51          7.4010    -3.5180     1.5240 ca         1 J14      -0.289300
     24 C61          6.7340    -2.9430     0.4480 ca         1 J14       0.510200
     25 N61          7.3660    -2.8520    -0.7860 nv         1 J14      -0.572500
     26 C71          3.4630    -2.0060     1.8520 c3         1 J14      -0.063700
     27 C81          7.4480    -4.2190     3.9370 c3         1 J14       0.061200
     28 H1          -0.3610    -0.8840     0.5110 h1         1 J14       0.010200
     29 H1A         -0.3610     0.8850     0.5100 h1         1 J14       0.010200
     30 HN1          1.8030     0.8090    -0.4860 hn         1 J14       0.266800
     31 H2          -0.1490     0.8830    -1.9530 h1         1 J14       0.013200
     32 H2A         -0.1500    -0.8860    -1.9520 h1         1 J14       0.013200
     33 HN2         -2.3140    -0.8090    -0.9550 hn         1 J14       0.252800
     34 H3          -2.1590    -0.8840    -3.3330 h1         1 J14       0.010700
     35 H3A         -2.1600     0.8850    -3.3330 h1         1 J14       0.010700
     36 H4          -4.3830    -0.8860    -2.2510 hc         1 J14       0.024700
     37 H4A         -4.3850     0.8830    -2.2500 hc         1 J14       0.024700
     38 HN1'         3.6230     2.2660     2.9920 hn         1 J14       0.249800
     39 H12         -4.6490    -2.1350    -4.3090 ha         1 J14       0.121000
     40 H14         -5.9580     0.0040    -7.7710 ha         1 J14       0.118000
     41 H15         -5.5180     2.1380    -6.6160 ha         1 J14       0.106000
     42 H16         -4.6350     2.1350    -4.3150 ha         1 J14       0.112000
     43 H2'          1.7410     2.1370     1.1550 h1         1 J14       0.012200
     44 H2'A         1.5320     1.5410     2.8160 h1         1 J14       0.012200
     45 H3'          1.3640    -0.5920     2.0230 h1         1 J14       0.037700
     46 H31          4.9370    -3.1560     3.7960 ha         1 J14       0.118000
     47 H4'          3.9010    -0.4400     0.4150 hc         1 J14       0.071700
     48 H5'          5.2120     0.3970     2.2450 h1         1 J14       0.014200
     49 H5'A         3.9290     0.0350     3.4340 h1         1 J14       0.014200
     50 H51          8.4090    -3.8960     1.4060 ha         1 J14       0.118000
     51 HN61         6.8540    -3.0410    -1.6250 hn         1 J14       0.271300
     52 HN6A         8.3410    -2.6320    -0.8340 hn         1 J14       0.271300
     53 H71          3.1320    -2.0630     2.8820 hc         1 J14       0.025700
     54 H71A         2.8010    -2.5920     1.2270 hc         1 J14       0.025700
     55 H81          6.7400    -4.3190     4.7510 hc         1 J14       0.009700
     56 H81A         8.2690    -3.5840     4.2490 hc         1 J14       0.009700
     57 H81B         7.8290    -5.1960     3.6680 hc         1 J14       0.009700
@<TRIPOS>BOND
     1     1     2 1   
     2     1     3 1   
     3     1    28 1   
     4     1    29 1   
     5     2    18 1   
     6     2    30 1   
     7     3     4 1   
     8     3    31 1   
     9     3    32 1   
    10     4     5 1   
    11     4    33 1   
    12     5     6 1   
    13     5    34 1   
    14     5    35 1   
    15     6     8 1   
    16     6    36 1   
    17     6    37 1   
    18     7    16 1   
    19     7    22 1   
    20     7    38 1   
    21     8    10 ar  
    22     8    15 ar  
    23     9    17 ar  
    24     9    24 ar  
    25    10    11 ar  
    26    10    39 1   
    27    11    12 1   
    28    11    13 ar  
    29    13    14 ar  
    30    13    40 1   
    31    14    15 ar  
    32    14    41 1   
    33    15    42 1   
    34    16    18 1   
    35    16    43 1   
    36    16    44 1   
    37    17    19 ar  
    38    17    26 1   
    39    18    20 1   
    40    18    45 1   
    41    19    21 ar  
    42    19    46 1   
    43    20    22 1   
    44    20    26 1   
    45    20    47 1   
    46    21    23 ar  
    47    21    27 1   
    48    22    48 1   
    49    22    49 1   
    50    23    24 ar  
    51    23    50 1   
    52    24    25 1   
    53    25    51 1   
    54    25    52 1   
    55    26    53 1   
    56    26    54 1   
    57    27    55 1   
    58    27    56 1   
    59    27    57 1   
@<TRIPOS>SUBSTRUCTURE
     1 J14         1 TEMP              0 ****  ****    0 ROOT
