@<TRIPOS>MOLECULE
J15
   75    77     1     0     0
SMALL
bcc


@<TRIPOS>ATOM
      1 C1           0.0000     0.0000     0.0000 c3         1 J15       0.326900
      2 O1          -0.4750    -1.1530     0.6980 os         1 J15      -0.284900
      3 C7          -1.7940    -1.2780     0.3960 ca         1 J15       0.116100
      4 C8          -2.5050    -2.3850     0.8410 ca         1 J15      -0.034000
      5 C9          -3.8470    -2.5190     0.5370 ca         1 J15      -0.422200
      6 N14         -4.5970    -3.7020     1.0140 no         1 J15       1.048200
      7 O15         -4.0320    -4.5570     1.6730 o          1 J15      -0.450500
      8 O16         -5.7800    -3.8220     0.7480 o          1 J15      -0.450500
      9 C10         -4.4910    -1.5500    -0.2050 ca         1 J15      -0.046000
     10 C11         -3.7830    -0.4370    -0.6600 ca         1 J15      -0.129600
     11 C12         -2.4290    -0.3030    -0.3540 ca         1 J15      -0.083000
     12 C13         -4.4680     0.6020    -1.4610 c          1 J15       0.596700
     13 N18         -5.7770     0.4700    -1.7560 ns         1 J15      -0.204900
     14 C19         -6.4550     1.4990    -2.5490 c3         1 J15       0.055000
     15 C20         -7.9230     1.1100    -2.7390 c3         1 J15      -0.049400
     16 C21         -8.6310     2.1840    -3.5660 c3         1 J15       0.146800
     17 N22        -10.0410     1.8110    -3.7500 n3         1 J15      -0.525600
     18 C23        -10.5980     2.7390    -4.7410 c3         1 J15       0.138800
     19 C24        -12.0990     2.4890    -4.8920 c3         1 J15       0.134300
     20 N25        -12.7760     2.7660    -3.6210 n3         1 J15      -0.519600
     21 C28        -14.1860     2.3930    -3.8030 c3         1 J15       0.156800
     22 C35        -14.9000     2.4200    -2.4500 c3         1 J15      -0.058400
     23 C36        -16.3670     2.0320    -2.6400 c3         1 J15      -0.051200
     24 N37        -17.0530     2.0560    -1.3410 nz         1 J15       0.087400
     25 C26        -12.2190     1.8380    -2.6290 c3         1 J15       0.134300
     26 C27        -10.7180     2.0880    -2.4770 c3         1 J15       0.138800
     27 O17         -3.8510     1.5730    -1.8520 o          1 J15      -0.632100
     28 C2           1.5310     0.0000     0.0000 c3         1 J15       0.152100
     29 O2           2.0090    -1.1670    -0.6720 oh         1 J15      -0.573800
     30 C3           2.0310     0.0000     1.4480 c3         1 J15       0.157100
     31 O3           3.4520     0.1510     1.4670 oh         1 J15      -0.572800
     32 C4           1.3800     1.1720     2.1910 c3         1 J15       0.143100
     33 O4           1.8490     2.4070     1.6450 oh         1 J15      -0.563800
     34 C5          -0.1400     1.0850     2.0260 c3         1 J15       0.142100
     35 C6          -0.8000     2.2320     2.7930 c3         1 J15       0.223400
     36 O6          -2.2200     2.0820     2.7440 oh         1 J15      -0.588800
     37 O5          -0.4820     1.1770     0.6440 os         1 J15      -0.370600
     38 H1          -0.3580    -0.0200    -1.0220 h2         1 J15       0.053700
     39 H8          -2.0070    -3.1450     1.4300 ha         1 J15       0.146000
     40 H10         -5.5420    -1.6570    -0.4420 ha         1 J15       0.126000
     41 H12         -1.8750     0.5600    -0.7050 ha         1 J15       0.177000
     42 H18         -6.2790    -0.3410    -1.4540 hn         1 J15       0.182500
     43 H191        -5.9760     1.5840    -3.5160 h1         1 J15       0.029200
     44 H192        -6.3970     2.4490    -2.0320 h1         1 J15       0.029200
     45 H201        -8.4030     1.0250    -1.7720 hc         1 J15       0.025200
     46 H202        -7.9810     0.1600    -3.2560 hc         1 J15       0.025200
     47 H211        -8.1520     2.2690    -4.5340 h1         1 J15       0.021700
     48 H212        -8.5740     3.1340    -3.0500 h1         1 J15       0.021700
     49 H231       -10.1100     2.5810    -5.6950 h1         1 J15       0.027950
     50 H232       -10.4350     3.7580    -4.4100 h1         1 J15       0.027950
     51 H241       -12.2650     1.4550    -5.1690 h1         1 J15       0.018450
     52 H242       -12.4970     3.1410    -5.6600 h1         1 J15       0.018450
     53 H281       -14.2450     1.3960    -4.2230 h1         1 J15       0.023700
     54 H282       -14.6610     3.0970    -4.4760 h1         1 J15       0.023700
     55 H351       -14.4240     1.7170    -1.7770 hc         1 J15       0.046700
     56 H352       -14.8420     3.4170    -2.0310 hc         1 J15       0.046700
     57 H361       -16.8430     2.7350    -3.3120 hx         1 J15       0.085700
     58 H362       -16.4250     1.0350    -3.0600 hx         1 J15       0.085700
     59 H371       -16.6470     1.3700    -0.7360 hn         1 J15       0.223800
     60 H372       -16.9550     2.9630    -0.9290 hn         1 J15       0.223800
     61 H261       -12.3820     0.8190    -2.9600 h1         1 J15       0.018450
     62 H262       -12.7080     1.9950    -1.6750 h1         1 J15       0.018450
     63 H271       -10.5530     3.1210    -2.1990 h1         1 J15       0.027950
     64 H272       -10.3220     1.4340    -1.7090 h1         1 J15       0.027950
     65 H2           1.8910     0.8880    -0.5050 h1         1 J15       0.048700
     66 HO2          2.4660    -0.9130    -1.4570 ho         1 J15       0.399000
     67 H3           1.7530    -0.9310     1.9260 h1         1 J15       0.026700
     68 HO3          3.8330    -0.5260     2.0020 ho         1 J15       0.395000
     69 H4           1.6320     1.1160     3.2430 h1         1 J15       0.011700
     70 HO4          2.4530     2.8070     2.2490 ho         1 J15       0.395000
     71 H5          -0.4880     0.1370     2.4180 h1         1 J15       0.042700
     72 H61         -0.5200     3.1760     2.3410 h1         1 J15       0.000700
     73 H62         -0.4700     2.2130     3.8250 h1         1 J15       0.000700
     74 HO6         -2.6210     2.6910     3.3410 ho         1 J15       0.390000
     75 H373       -18.0230     1.8490    -1.4720 hn         1 J15       0.223800
@<TRIPOS>BOND
     1     1     2 1   
     2     1    28 1   
     3     1    37 1   
     4     1    38 1   
     5     2     3 1   
     6     3     4 ar  
     7     3    11 ar  
     8     4     5 ar  
     9     4    39 1   
    10     5     6 1   
    11     5     9 ar  
    12     6     7 1   
    13     6     8 1   
    14     9    10 ar  
    15     9    40 1   
    16    10    11 ar  
    17    10    12 1   
    18    11    41 1   
    19    12    13 1   
    20    12    27 2   
    21    13    14 1   
    22    13    42 1   
    23    14    15 1   
    24    14    43 1   
    25    14    44 1   
    26    15    16 1   
    27    15    45 1   
    28    15    46 1   
    29    16    17 1   
    30    16    47 1   
    31    16    48 1   
    32    17    18 1   
    33    17    26 1   
    34    18    19 1   
    35    18    49 1   
    36    18    50 1   
    37    19    20 1   
    38    19    51 1   
    39    19    52 1   
    40    20    21 1   
    41    20    25 1   
    42    21    22 1   
    43    21    53 1   
    44    21    54 1   
    45    22    23 1   
    46    22    55 1   
    47    22    56 1   
    48    23    24 1   
    49    23    57 1   
    50    23    58 1   
    51    24    59 1   
    52    24    60 1   
    53    24    75 1   
    54    25    26 1   
    55    25    61 1   
    56    25    62 1   
    57    26    63 1   
    58    26    64 1   
    59    28    29 1   
    60    28    30 1   
    61    28    65 1   
    62    29    66 1   
    63    30    31 1   
    64    30    32 1   
    65    30    67 1   
    66    31    68 1   
    67    32    33 1   
    68    32    34 1   
    69    32    69 1   
    70    33    70 1   
    71    34    35 1   
    72    34    37 1   
    73    34    71 1   
    74    35    36 1   
    75    35    72 1   
    76    35    73 1   
    77    36    74 1   
@<TRIPOS>SUBSTRUCTURE
     1 J15         1 TEMP              0 ****  ****    0 ROOT
