@<TRIPOS>MOLECULE
molecule
   37    39     1     0     0
SMALL
bcc


@<TRIPOS>ATOM
      1 C21          0.0000     0.0000     0.0000 ca         1 J19      -0.133000
      2 C11          2.0460     0.3770    -3.7770 c          1 J19       0.708700
      3 N10          1.2460     0.8780    -4.7020 ns         1 J19      -0.457400
      4 C12          1.5330     0.4400    -2.4040 cc         1 J19      -0.115600
      5 S13         -0.0530     1.2200    -2.5580 ss         1 J19      -0.215800
      6 C9           0.0430     1.4030    -4.3180 cd         1 J19       0.513800
      7 N8          -0.8650     1.9400    -5.1020 ne         1 J19      -0.597100
      8 C4          -2.0280     2.4260    -4.5680 ca         1 J19       0.157400
      9 C3          -2.0070     3.1250    -3.3590 ca         1 J19      -0.165000
     10 C2          -3.1830     3.6130    -2.8270 ca         1 J19      -0.111000
     11 C5          -3.2410     2.2320    -5.2340 ca         1 J19       0.046400
     12 Cl7         -3.2790     1.3710    -6.7410 cl         1 J19      -0.086400
     13 C6          -4.4100     2.7250    -4.6900 ca         1 J19      -0.113000
     14 C1          -4.3810     3.4120    -3.4880 ca         1 J19      -0.127000
     15 C15          2.1370    -0.0000    -1.2710 cf         1 J19       0.031800
     16 C16          1.4000     0.0000     0.0000 ca         1 J19      -0.067800
     17 C20         -0.6870     0.0050     1.1940 ca         1 J19      -0.131000
     18 C19          0.0040     0.0060     2.3980 ca         1 J19       0.098100
     19 O22         -0.6810     0.0110     3.5720 oh         1 J19      -0.502100
     20 C18          1.3980     0.0000     2.4070 ca         1 J19       0.123100
     21 C17          2.0970     0.0000     1.2150 ca         1 J19      -0.183000
     22 O23          2.0700    -0.0000     3.5880 os         1 J19      -0.310900
     23 C24          3.4980    -0.0060     3.5220 c3         1 J19       0.124700
     24 H1          -0.5420    -0.0010    -0.9380 ha         1 J19       0.158000
     25 H3          -1.0700     3.2840    -2.8390 ha         1 J19       0.154000
     26 H4          -3.1680     4.1530    -1.8880 ha         1 J19       0.136000
     27 H5          -5.3520     2.5730    -5.2040 ha         1 J19       0.148000
     28 H6          -5.3010     3.7970    -3.0650 ha         1 J19       0.138000
     29 H7           3.1150    -0.4610    -1.3260 ha         1 J19       0.166000
     30 H9          -1.7710     0.0050     1.1930 ha         1 J19       0.150000
     31 H10         -1.0520     0.8660     3.7160 ho         1 J19       0.420000
     32 H11          3.1800    -0.0020     1.2200 ha         1 J19       0.146000
     33 H12          3.8320    -0.8920     2.9940 h1         1 J19       0.044367
     34 H13          3.9060    -0.0090     4.5260 h1         1 J19       0.044367
     35 H14          3.8400     0.8770     2.9960 h1         1 J19       0.044367
     36 H2           1.5160     0.8740    -5.6660 hn         1 J19       0.359500
     37 O14          3.1310    -0.1070    -4.0450 o          1 J19      -0.595500
@<TRIPOS>BOND
     1    14    10 ar
     2    14    13 ar
     3    10     9 ar
     4    13    11 ar
     5    23    22 1
     6     9     8 ar
     7    22    20 1
     8    11     8 ar
     9    11    12 1
    10     8     7 1
    11    19    18 1
    12    20    18 ar
    13    20    21 ar
    14    18    17 ar
    15    21    16 ar
    16     7     6 2
    17     5     6 1
    18     5     4 1
    19     6     3 1
    20    17     1 ar
    21    16     1 ar
    22    16    15 1
    23     4    15 2
    24     4     2 1
    25     3     2 1
    26     2    37 2
    27     1    24 1
    28     9    25 1
    29    10    26 1
    30    13    27 1
    31    14    28 1
    32    15    29 1
    33    17    30 1
    34    19    31 1
    35    21    32 1
    36    23    33 1
    37    23    34 1
    38    23    35 1
    39     3    36 1
@<TRIPOS>SUBSTRUCTURE
     1 J19         1 TEMP              0 ****  ****    0 ROOT
