@<TRIPOS>MOLECULE
J1A
   74    80     1     0     0
SMALL
bcc


@<TRIPOS>ATOM
      1 C1           0.0000     0.0000     0.0000 c3         1 J1A       0.058000
      2 N1           3.2290     0.5020     1.5030 na         1 J1A       0.339000
      3 O1           1.4370     0.0000     0.0000 os         1 J1A      -0.246000
      4 S1          -0.0820    -0.0510    -2.7340 ss         1 J1A       0.007000
      5 C2          -0.4590     0.6580     1.3160 c3         1 J1A       0.014000
      6 N2           5.0760     1.5710     1.0430 n2         1 J1A      -0.063000
      7 O2          -1.2600    -0.2500     2.0760 oh         1 J1A      -0.275000
      8 C3           0.8610     0.9700     2.0640 DU         1 J1A       0.172000
      9 O3           0.7390     0.6790     3.4570 oh         1 J1A      -0.287000
     10 C4           1.8590     0.0000     1.3810 c3         1 J1A      -0.182000
     11 N4           6.2150     0.0940     4.2070 n2         1 J1A      -0.109000
     12 C5           3.8700     1.3200     0.6220 c2         1 J1A      -0.236000
     13 N5           4.0480    -0.4790     3.6460 n2         1 J1A      -0.073000
     14 C6           5.2850     0.9310     2.2190 c2         1 J1A      -0.254000
     15 N6          -0.3840     2.6010    -6.4090 n3         1 J1A      -0.042000
     16 C7           6.3640     0.8360     3.1140 c2         1 J1A       0.035000
     17 C8           5.0840    -0.5400     4.4550 c2         1 J1A      -0.010000
     18 N8           9.2020     3.9210    -8.4070 n2         1 J1A       0.077000
     19 C9           4.1030     0.2370     2.5280 c2         1 J1A      -0.123000
     20 C10         -0.5200     0.8040    -1.1950 c3         1 J1A      -0.205000
     21 N10          9.6960     3.7750    -6.1130 ns         1 J1A       0.142000
     22 C11         -0.7710     1.0350    -4.0140 c3         1 J1A      -0.159000
     23 N11          6.1460     4.4110    -6.5910 n2         1 J1A       0.071000
     24 C12         -0.0360     2.3790    -3.9940 c3         1 J1A      -0.147000
     25 N12          7.0310     4.3220    -9.1760 n2         1 J1A       0.051000
     26 C13         -0.5800     3.2680    -5.1140 c3         1 J1A      -0.099500
     27 C14         -1.1200     1.3320    -6.4680 c3         1 J1A      -0.099500
     28 C15         -0.5910     0.3840    -5.3880 c3         1 J1A      -0.147000
     29 C18          3.8480     4.8330    -7.3130 c3         1 J1A      -0.050000
     30 C19         10.0550     3.7450    -7.4280 c2         1 J1A      -0.423000
     31 C20          8.4090     3.9920    -5.7590 c2         1 J1A       0.246000
     32 C21          5.3080     4.5840    -7.5930 c2         1 J1A      -0.045000
     33 C22          5.7590     4.5390    -8.9080 c2         1 J1A      -0.051000
     34 C25          7.8950     4.1450    -8.1750 c2         1 J1A      -0.101000
     35 C26          7.4300     4.1920    -6.8420 c2         1 J1A      -0.128000
     36 C27          1.7280     3.7540    -6.8610 c3         1 J1A      -0.096000
     37 N28          3.1560     3.5490    -7.1370 n7         1 J1A      -0.061000
     38 H1          -0.3660    -1.0180    -0.0480 h1         1 J1A       0.109000
     39 H2          -1.0020     1.5720     1.1110 h1         1 J1A       0.063000
     40 HO2         -2.1430     0.0770     2.1260 ho         1 J1A       0.203000
     41 H3           1.1570     1.9990     1.9030 ha         1 J1A       0.048000
     42 HN3          6.8940     2.1060     2.4180 hn         1 J1A       0.063000
     43 HN3A         8.1620     1.0050     2.2380 hn         1 J1A       0.063000
     44 HO3          0.6560    -0.2520     3.5780 ho         1 J1A       0.239000
     45 H4           1.8420     1.0830     1.3970 DU         1 J1A       0.124000
     46 H5           3.4400     1.7040    -0.2950 h5         1 J1A       0.169000
     47 H8           5.0070    -1.1330     5.3580 h5         1 J1A       0.142000
     48 H10         -1.5670     1.0690    -1.1120 h1         1 J1A       0.086000
     49 H10A         0.1530     1.6290    -0.9980 h1         1 J1A       0.086000
     50 H11         -1.8260     1.1980    -3.8280 h1         1 J1A       0.093000
     51 H12         -0.1980     2.8640    -3.0380 hc         1 J1A       0.074500
     52 H12A         1.0230     2.2130    -4.1470 hc         1 J1A       0.074500
     53 H13         -0.3730     4.3290    -5.0370 h1         1 J1A       0.077750
     54 H13A        -1.5440     2.9380    -4.7470 h1         1 J1A       0.077750
     55 H14         -0.9790     0.8800    -7.4430 h1         1 J1A       0.077750
     56 H14A        -2.1730     1.5180    -6.2990 h1         1 J1A       0.077750
     57 H15         -1.1450    -0.5460    -5.4210 hc         1 J1A       0.074500
     58 H15A         0.4610     0.1910    -5.5600 hc         1 J1A       0.074500
     59 H18          3.4070     5.3700    -8.1440 h1         1 J1A       0.072000
     60 H18A         3.7500     5.4230    -6.4090 h1         1 J1A       0.072000
     61 H22          5.0570     4.6830    -9.7210 h4         1 J1A       0.157000
     62 H27          1.6160     4.3360    -5.9550 h1         1 J1A       0.059500
     63 H27A         1.2730     4.2830    -7.6890 h1         1 J1A       0.059500
     64 HN28         3.5740     3.0460    -6.3790 hn         1 J1A       0.056000
     65 N3           7.5530     1.4970     2.8620 nv         1 J1A       0.033000
     66 O4           8.0710     4.0210    -4.5910 o          1 J1A      -0.260000
     67 N9          11.3710     3.5220    -7.7410 nz         1 J1A       0.969000
     68 H91         11.4790     3.5050    -8.7360 hn         1 J1A       0.018333
     69 C16          1.0430     2.3970    -6.6850 c3         1 J1A      -0.104000
     70 HN10        10.3890     3.6350    -5.4050 hn         1 J1A       0.106000
     71 H16          1.1560     1.8150    -7.5910 h1         1 J1A       0.064500
     72 HN9         11.9340     4.2550    -7.3570 hn         1 J1A       0.018333
     73 HN9A        11.6610     2.6440    -7.3590 hn         1 J1A       0.018333
     74 H16A         1.4990     1.8670    -5.8570 h1         1 J1A       0.064500
@<TRIPOS>BOND
     1     1     3 1   
     2     1     5 1   
     3     1    20 1   
     4     1    38 1   
     5     2    10 1   
     6     2    12 1   
     7     2    19 1   
     8     3    10 1   
     9     4    20 1   
    10     4    22 1   
    11     5     7 1   
    12     5     8 1   
    13     5    39 1   
    14     6    12 1   
    15     6    14 1   
    16     7    40 1   
    17     8     9 1   
    18     8    10 1   
    19     8    41 1   
    20     8    45 1   
    21     9    44 1   
    22    10    45 1   
    23    11    16 1   
    24    11    17 1   
    25    12    46 1   
    26    13    17 1   
    27    13    19 1   
    28    14    16 1   
    29    14    19 1   
    30    15    26 1   
    31    15    27 1   
    32    15    69 1   
    33    16    65 1   
    34    17    47 1   
    35    18    30 1   
    36    18    34 1   
    37    20    48 1   
    38    20    49 1   
    39    21    30 1   
    40    21    31 1   
    41    21    70 1   
    42    22    24 1   
    43    22    28 1   
    44    22    50 1   
    45    23    32 1   
    46    23    35 1   
    47    24    26 1   
    48    24    51 1   
    49    24    52 1   
    50    25    33 1   
    51    25    34 1   
    52    26    53 1   
    53    26    54 1   
    54    27    28 1   
    55    27    55 1   
    56    27    56 1   
    57    28    57 1   
    58    28    58 1   
    59    29    32 1   
    60    29    37 1   
    61    29    59 1   
    62    29    60 1   
    63    30    67 1   
    64    31    35 1   
    65    31    66 1   
    66    32    33 1   
    67    33    61 1   
    68    34    35 1   
    69    36    37 1   
    70    36    62 1   
    71    36    63 1   
    72    36    69 1   
    73    37    64 1   
    74    42    65 1   
    75    43    65 1   
    76    67    68 1   
    77    67    72 1   
    78    67    73 1   
    79    69    71 1   
    80    69    74 1   
@<TRIPOS>SUBSTRUCTURE
     1 J1A         1 TEMP              0 ****  ****    0 ROOT
