@<TRIPOS>MOLECULE
molecule
   74    79     1     0     0
SMALL
bcc


@<TRIPOS>ATOM
      1 C1           0.0000     0.0000     0.0000 c3         1 J1A       0.129100
      2 N1           3.2290     0.5020     1.5030 na         1 J1A      -0.239000
      3 O1           1.4370     0.0000     0.0000 os         1 J1A      -0.418600
      4 S1          -0.0820    -0.0510    -2.7340 ss         1 J1A      -0.285200
      5 C2          -0.4590     0.6580     1.3160 c3         1 J1A       0.096100
      6 N2           5.0760     1.5710     1.0430 nc         1 J1A      -0.590100
      7 O2          -1.2600    -0.2500     2.0760 oh         1 J1A      -0.567800
      8 C3           0.8610     0.9700     2.0640 c3         1 J1A       0.220100
      9 O3           0.7390     0.6790     3.4570 oh         1 J1A      -0.550800
     10 C4           1.8590     0.0000     1.3810 c3         1 J1A       0.025800
     11 N4           6.2150     0.0940     4.2070 nb         1 J1A      -0.739000
     12 C5           3.8700     1.3200     0.6220 cd         1 J1A       0.407700
     13 N5           4.0480    -0.4790     3.6460 nb         1 J1A      -0.733000
     14 C6           5.2850     0.9310     2.2190 ca         1 J1A      -0.228200
     15 N6          -0.3840     2.6010    -6.4090 n3         1 J1A      -0.710600
     16 C7           6.3640     0.8360     3.1140 ca         1 J1A       0.666200
     17 C8           5.0840    -0.5400     4.4550 ca         1 J1A       0.716900
     18 N8           9.2020     3.9210    -8.4070 nc         1 J1A      -0.618700
     19 C9           4.1030     0.2370     2.5280 ca         1 J1A       0.488800
     20 C10         -0.5200     0.8040    -1.1950 c3         1 J1A      -0.009300
     21 N10          9.6960     3.7750    -6.1130 ns         1 J1A      -0.481400
     22 C11         -0.7710     1.0350    -4.0140 c3         1 J1A       0.015400
     23 N11          6.1460     4.4110    -6.5910 nb         1 J1A      -0.587000
     24 C12         -0.0360     2.3790    -3.9940 c3         1 J1A      -0.119900
     25 N12          7.0310     4.3220    -9.1760 nb         1 J1A      -0.598000
     26 C13         -0.5800     3.2680    -5.1140 c3         1 J1A       0.151800
     27 C14         -1.1200     1.3320    -6.4680 c3         1 J1A       0.151800
     28 C15         -0.5910     0.3840    -5.3880 c3         1 J1A      -0.119900
     29 C18          3.8480     4.8330    -7.3130 c3         1 J1A       0.106500
     30 C19         10.0550     3.7450    -7.4280 cd         1 J1A       0.491800
     31 C20          8.4090     3.9920    -5.7590 c          1 J1A       0.605000
     32 C21          5.3080     4.5840    -7.5930 ca         1 J1A       0.355300
     33 C22          5.7590     4.5390    -8.9080 ca         1 J1A       0.369900
     34 C25          7.8950     4.1450    -8.1750 ca         1 J1A       0.507000
     35 C26          7.4300     4.1920    -6.8420 ca         1 J1A       0.259500
     36 C27          1.7280     3.7540    -6.8610 c3         1 J1A       0.157800
     37 N28          3.1560     3.5490    -7.1370 n7         1 J1A      -0.820200
     38 H1          -0.3660    -1.0180    -0.0480 h1         1 J1A       0.102700
     39 H2          -1.0020     1.5720     1.1110 h1         1 J1A       0.061700
     40 HO2         -2.1430     0.0770     2.1260 ho         1 J1A       0.420000
     41 H3           1.1570     1.9990     1.9030 h1         1 J1A       0.046700
     42 HN3          6.8940     2.1060     2.4180 hn         1 J1A       0.381800
     43 HN3A         8.1620     1.0050     2.2380 hn         1 J1A       0.381800
     44 HO3          0.6560    -0.2520     3.5780 ho         1 J1A       0.455000
     45 H4           1.8420     1.0830     1.3970 h2         1 J1A       0.142700
     46 H5           3.4400     1.7040    -0.2950 h5         1 J1A       0.086800
     47 H8           5.0070    -1.1330     5.3580 h5         1 J1A       0.072100
     48 H10         -1.5670     1.0690    -1.1120 h1         1 J1A       0.068200
     49 H10A         0.1530     1.6290    -0.9980 h1         1 J1A       0.068200
     50 H11         -1.8260     1.1980    -3.8280 h1         1 J1A       0.069700
     51 H12         -0.1980     2.8640    -3.0380 hc         1 J1A       0.055950
     52 H12A         1.0230     2.2130    -4.1470 hc         1 J1A       0.055950
     53 H13         -0.3730     4.3290    -5.0370 h1         1 J1A       0.068450
     54 H13A        -1.5440     2.9380    -4.7470 h1         1 J1A       0.068450
     55 H14         -0.9790     0.8800    -7.4430 h1         1 J1A       0.068450
     56 H14A        -2.1730     1.5180    -6.2990 h1         1 J1A       0.068450
     57 H15         -1.1450    -0.5460    -5.4210 hc         1 J1A       0.055950
     58 H15A         0.4610     0.1910    -5.5600 hc         1 J1A       0.055950
     59 H18          3.4070     5.3700    -8.1440 h1         1 J1A       0.067200
     60 H18A         3.7500     5.4230    -6.4090 h1         1 J1A       0.067200
     61 H22          5.0570     4.6830    -9.7210 h4         1 J1A       0.073100
     62 H27          1.6160     4.3360    -5.9550 h1         1 J1A       0.047200
     63 H27A         1.2730     4.2830    -7.6890 h1         1 J1A       0.047200
     64 HN28         3.5740     3.0460    -6.3790 hn         1 J1A       0.364800
     65 N3           7.5530     1.4970     2.8620 nv         1 J1A      -0.839500
     66 O4           8.0710     4.0210    -4.5910 o          1 J1A      -0.497500
     67 N9          11.3710     3.5220    -7.7410 nz         1 J1A      -0.738600
     68 H91         11.4790     3.5050    -8.7360 hn         1 J1A       0.482467
     69 C16          1.0430     2.3970    -6.6850 c3         1 J1A       0.155800
     70 HN10        10.3890     3.6350    -5.4050 hn         1 J1A       0.350500
     71 H16          1.1560     1.8150    -7.5910 h1         1 J1A       0.047700
     72 HN9         11.9340     4.2550    -7.3570 hn         1 J1A       0.482467
     73 HN9A        11.6610     2.6440    -7.3590 hn         1 J1A       0.482467
     74 H16A         1.4990     1.8670    -5.8570 h1         1 J1A       0.047700
@<TRIPOS>BOND
     1     5     1 1
     2    20     1 1
     3     1     3 1
     4     1    38 1
     5    10     2 1
     6     2    19 1
     7     2    12 1
     8     3    10 1
     9    20     4 1
    10     4    22 1
    11     7     5 1
    12     5     8 1
    13     5    39 1
    14    12     6 2
    15    14     6 1
    16     7    40 1
    17     9     8 1
    18     8    10 1
    19     8    41 1
    20    16    65 1
    21    65    42 1
    22    65    43 1
    23     9    44 1
    24    10    45 1
    25    17    11 ar
    26    11    16 ar
    27    66    31 2
    28    12    46 1
    29    13    19 ar
    30    13    17 ar
    31    19    14 ar
    32    14    16 ar
    33    26    15 1
    34    15    27 1
    35    15    69 1
    36    17    47 1
    37    34    18 1
    38    18    30 2
    39    30    67 1
    40    67    72 1
    41    67    73 1
    42    20    48 1
    43    20    49 1
    44    31    21 1
    45    21    30 1
    46    21    70 1
    47    24    22 1
    48    22    28 1
    49    22    50 1
    50    32    23 ar
    51    23    35 ar
    52    24    26 1
    53    24    51 1
    54    24    52 1
    55    33    25 ar
    56    25    34 ar
    57    26    53 1
    58    26    54 1
    59    28    27 1
    60    27    55 1
    61    27    56 1
    62    28    57 1
    63    28    58 1
    64    69    36 1
    65    69    71 1
    66    69    74 1
    67    37    29 1
    68    29    32 1
    69    29    59 1
    70    29    60 1
    71    35    31 1
    72    32    33 ar
    73    33    61 1
    74    35    34 ar
    75    37    36 1
    76    36    62 1
    77    36    63 1
    78    37    64 1
    79    68    67 1
@<TRIPOS>SUBSTRUCTURE
     1 J1A         1 TEMP              0 ****  ****    0 ROOT
