@<TRIPOS>MOLECULE
J1B
   82    88     1     0     0
SMALL
bcc


@<TRIPOS>ATOM
      1 C1           0.0000     0.0000     0.0000 c3         1 J1B       0.066000
      2 N1           3.2300     0.5010     1.5020 na         1 J1B       0.336000
      3 O1           1.4360     0.0000     0.0000 os         1 J1B      -0.241000
      4 S1          -0.0840    -0.0440    -2.7330 ss         1 J1B       0.009000
      5 C2          -0.4580     0.6570     1.3170 c3         1 J1B       0.016000
      6 N2           5.0790     1.5620     1.0360 n2         1 J1B      -0.052000
      7 O2          -1.2590    -0.2500     2.0760 oh         1 J1B      -0.254000
      8 C3           0.8610     0.9700     2.0640 DU         1 J1B       0.170000
      9 O3           0.7390     0.6790     3.4570 oh         1 J1B      -0.244000
     10 C4           1.8590     0.0000     1.3810 c3         1 J1B      -0.103000
     11 N4           6.2160     0.0970     4.2070 n2         1 J1B      -0.112000
     12 C5           3.8720     1.3150     0.6170 c2         1 J1B      -0.236000
     13 N5           4.0440    -0.4680     3.6520 n2         1 J1B      -0.068000
     14 C6           5.2860     0.9270     2.2150 c2         1 J1B      -0.255000
     15 N6          -2.4730     1.3960    -6.3180 n3         1 J1B      -0.043000
     16 C7           6.3660     0.8310     3.1090 c2         1 J1B       0.037000
     17 C8           5.0800    -0.5270     4.4620 c2         1 J1B      -0.016000
     18 N8          -8.3130    -6.4040    -8.0040 n2         1 J1B       0.001000
     19 C9           4.1020     0.2400     2.5290 c2         1 J1B      -0.129000
     20 C10         -0.5200     0.8060    -1.1920 c3         1 J1B      -0.213000
     21 N10         -6.1960    -7.2230    -7.4320 ns         1 J1B       0.189000
     22 C11         -0.7730     1.0460    -4.0100 c3         1 J1B      -0.158000
     23 N11         -6.2040    -3.6050    -7.1590 n2         1 J1B       0.045000
     24 C12         -0.3780     0.5250    -5.3950 c3         1 J1B      -0.148000
     25 N12         -8.7630    -4.0780    -8.0110 nu         1 J1B       0.108000
     26 C13         -1.0130     1.4120    -6.4670 c3         1 J1B      -0.099500
     27 C14         -2.8800     1.9360    -5.0130 c3         1 J1B      -0.099500
     28 C15         -2.3000     1.0640    -3.8960 c3         1 J1B      -0.148000
     29 C18         -6.5350    -1.2290    -6.8850 c3         1 J1B      -0.054000
     30 C19         -7.4840    -7.4150    -7.8240 c2         1 J1B      -0.454000
     31 C20         -5.7270    -5.9760    -7.2030 c2         1 J1B       0.236000
     32 C21         -7.0460    -2.6330    -7.0900 c2         1 J1B      -0.054000
     33 C22         -8.5290    -2.8670    -7.2080 c3         1 J1B      -0.036000
     34 C23         -9.1840    -1.6650    -7.8930 c3         1 J1B      -0.129000
     35 C24         -9.1310    -3.0530    -5.8140 c3         1 J1B      -0.129000
     36 C25         -7.9160    -5.1500    -7.8030 c2         1 J1B      -0.091000
     37 C26         -6.6070    -4.8890    -7.3750 c2         1 J1B      -0.139000
     38 C27         -4.5340     0.1040    -6.6010 c3         1 J1B      -0.105000
     39 N28         -5.0690    -1.2500    -6.8000 n7         1 J1B      -0.046000
     40 H1          -0.3670    -1.0180    -0.0490 h1         1 J1B       0.106000
     41 H2          -1.0010     1.5720     1.1130 h1         1 J1B       0.053000
     42 HO2         -2.1130     0.1260     2.2150 ho         1 J1B       0.186000
     43 H3           1.1570     2.0000     1.9030 ha         1 J1B       0.005000
     44 HN3          6.9000     2.0980     2.4120 hn         1 J1B       0.065000
     45 HN3A         8.1570     0.9890     2.2250 hn         1 J1B       0.065000
     46 HO3          0.5700     1.4760     3.9320 ho         1 J1B       0.187000
     47 H4           1.8420     1.0830     1.3970 DU         1 J1B       0.091000
     48 H5           3.4420     1.6980    -0.3000 h5         1 J1B       0.171000
     49 H8           5.0010    -1.1150     5.3680 h5         1 J1B       0.140000
     50 H10         -1.5670     1.0720    -1.1080 h1         1 J1B       0.086500
     51 H10A         0.1530     1.6320    -0.9950 h1         1 J1B       0.086500
     52 H11         -0.3910     2.0510    -3.8800 h1         1 J1B       0.092000
     53 H12          0.7000     0.5530    -5.4960 hc         1 J1B       0.074500
     54 H12A        -0.7310    -0.4920    -5.5120 hc         1 J1B       0.074500
     55 H13         -0.5910     1.3500    -7.4630 h1         1 J1B       0.076500
     56 H13A        -0.6540     2.2210    -5.8420 h1         1 J1B       0.076500
     57 H14         -2.5060     2.9470    -4.9100 h1         1 J1B       0.076500
     58 H14A        -3.9610     1.9360    -4.9450 h1         1 J1B       0.076500
     59 H15         -2.5850     1.4730    -2.9350 hc         1 J1B       0.074500
     60 H15A        -2.6810     0.0540    -3.9930 hc         1 J1B       0.074500
     61 H18         -6.9450    -0.8260    -5.9670 h1         1 J1B       0.070500
     62 H18A        -6.8390    -0.6090    -7.7200 h1         1 J1B       0.070500
     63 H23         -8.6680    -1.4530    -8.8210 hc         1 J1B       0.064333
     64 H23A       -10.2230    -1.8900    -8.1010 hc         1 J1B       0.064333
     65 H23B        -9.1240    -0.8020    -7.2410 hc         1 J1B       0.064333
     66 H24         -9.2350    -2.0880    -5.3330 hc         1 J1B       0.064333
     67 H24A        -8.4800    -3.6840    -5.2210 hc         1 J1B       0.064333
     68 H24B       -10.1050    -3.5200    -5.9010 hc         1 J1B       0.064333
     69 H27         -4.9300     0.5180    -5.6810 h1         1 J1B       0.054500
     70 H27A        -4.8240     0.7330    -7.4340 h1         1 J1B       0.054500
     71 HN28        -4.7880    -1.8350    -6.0380 hn         1 J1B       0.063000
     72 N3           7.5580     1.4870     2.8530 nv         1 J1B       0.035000
     73 HN10        -5.5920    -8.0110    -7.3050 hn         1 J1B       0.099000
     74 O5          -4.5710    -5.7970    -6.8570 o          1 J1B      -0.295000
     75 N9          -7.9320    -8.6900    -8.0390 nz         1 J1B       0.988000
     76 H91         -7.8090    -9.2320    -7.2070 hn         1 J1B       0.012333
     77 C16         -3.0080     0.0430    -6.5160 c3         1 J1B      -0.103000
     78 HN12        -9.5050    -4.1230    -8.6810 hn         1 J1B       0.111000
     79 H16         -2.6110    -0.3710    -7.4360 h1         1 J1B       0.067500
     80 HN9         -8.9030    -8.6660    -8.2810 hn         1 J1B       0.012333
     81 HN9A        -7.4130    -9.1040    -8.7880 hn         1 J1B       0.012333
     82 H16A        -2.7170    -0.5860    -5.6830 h1         1 J1B       0.067500
@<TRIPOS>BOND
     1     1     3 1   
     2     1     5 1   
     3     1    20 1   
     4     1    40 1   
     5     2    10 1   
     6     2    12 1   
     7     2    19 1   
     8     3    10 1   
     9     4    20 1   
    10     4    22 1   
    11     5     7 1   
    12     5     8 1   
    13     5    41 1   
    14     6    12 1   
    15     6    14 1   
    16     7    42 1   
    17     8     9 1   
    18     8    10 1   
    19     8    43 1   
    20     8    47 1   
    21     9    46 1   
    22    10    47 1   
    23    11    16 1   
    24    11    17 1   
    25    12    48 1   
    26    13    17 1   
    27    13    19 1   
    28    14    16 1   
    29    14    19 1   
    30    15    26 1   
    31    15    27 1   
    32    15    77 1   
    33    16    72 1   
    34    17    49 1   
    35    18    30 1   
    36    18    36 1   
    37    20    50 1   
    38    20    51 1   
    39    21    30 1   
    40    21    31 1   
    41    21    73 1   
    42    22    24 1   
    43    22    28 1   
    44    22    52 1   
    45    23    32 1   
    46    23    37 1   
    47    24    26 1   
    48    24    53 1   
    49    24    54 1   
    50    25    33 1   
    51    25    36 1   
    52    25    78 1   
    53    26    55 1   
    54    26    56 1   
    55    27    28 1   
    56    27    57 1   
    57    27    58 1   
    58    28    59 1   
    59    28    60 1   
    60    29    32 1   
    61    29    39 1   
    62    29    61 1   
    63    29    62 1   
    64    30    75 1   
    65    31    37 1   
    66    31    74 1   
    67    32    33 1   
    68    33    34 1   
    69    33    35 1   
    70    34    63 1   
    71    34    64 1   
    72    34    65 1   
    73    35    66 1   
    74    35    67 1   
    75    35    68 1   
    76    36    37 1   
    77    38    39 1   
    78    38    69 1   
    79    38    70 1   
    80    38    77 1   
    81    39    71 1   
    82    44    72 1   
    83    45    72 1   
    84    75    76 1   
    85    75    80 1   
    86    75    81 1   
    87    77    79 1   
    88    77    82 1   
@<TRIPOS>SUBSTRUCTURE
     1 J1B         1 TEMP              0 ****  ****    0 ROOT
