@<TRIPOS>MOLECULE
molecule
   82    87     1     0     0
SMALL
bcc


@<TRIPOS>ATOM
      1 C1           0.0000     0.0000     0.0000 c3         1 J1B       0.137100
      2 N1           3.2300     0.5010     1.5020 na         1 J1B      -0.238000
      3 O1           1.4360     0.0000     0.0000 os         1 J1B      -0.408600
      4 S1          -0.0840    -0.0440    -2.7330 ss         1 J1B      -0.282200
      5 C2          -0.4580     0.6570     1.3170 c3         1 J1B       0.103100
      6 N2           5.0790     1.5620     1.0360 nc         1 J1B      -0.581100
      7 O2          -1.2590    -0.2500     2.0760 oh         1 J1B      -0.545800
      8 C3           0.8610     0.9700     2.0640 c3         1 J1B       0.223100
      9 O3           0.7390     0.6790     3.4570 oh         1 J1B      -0.520800
     10 C4           1.8590     0.0000     1.3810 c3         1 J1B       0.094800
     11 N4           6.2160     0.0970     4.2070 nb         1 J1B      -0.740000
     12 C5           3.8720     1.3150     0.6170 cd         1 J1B       0.409700
     13 N5           4.0440    -0.4680     3.6520 nb         1 J1B      -0.727000
     14 C6           5.2860     0.9270     2.2150 ca         1 J1B      -0.228200
     15 N6          -2.4730     1.3960    -6.3180 n3         1 J1B      -0.710600
     16 C7           6.3660     0.8310     3.1090 ca         1 J1B       0.666200
     17 C8           5.0800    -0.5270     4.4620 ca         1 J1B       0.710900
     18 N8          -8.3130    -6.4040    -8.0040 nc         1 J1B      -0.604300
     19 C9           4.1020     0.2400     2.5290 ca         1 J1B       0.483800
     20 C10         -0.5200     0.8060    -1.1920 c3         1 J1B      -0.014300
     21 N10         -6.1960    -7.2230    -7.4320 ns         1 J1B      -0.452400
     22 C11         -0.7730     1.0460    -4.0100 c3         1 J1B       0.015400
     23 N11         -6.2040    -3.6050    -7.1590 nf         1 J1B      -0.515300
     24 C12         -0.3780     0.5250    -5.3950 c3         1 J1B      -0.120400
     25 N12         -8.7630    -4.0780    -8.0110 nu         1 J1B      -0.765000
     26 C13         -1.0130     1.4120    -6.4670 c3         1 J1B       0.153300
     27 C14         -2.8800     1.9360    -5.0130 c3         1 J1B       0.153300
     28 C15         -2.3000     1.0640    -3.8960 c3         1 J1B      -0.120400
     29 C18         -6.5350    -1.2290    -6.8850 c3         1 J1B       0.127500
     30 C19         -7.4840    -7.4150    -7.8240 cd         1 J1B       0.460800
     31 C20         -5.7270    -5.9760    -7.2030 c          1 J1B       0.707700
     32 C21         -7.0460    -2.6330    -7.0900 c2         1 J1B       0.452300
     33 C22         -8.5290    -2.8670    -7.2080 c3         1 J1B       0.158900
     34 C23         -9.1840    -1.6650    -7.8930 c3         1 J1B      -0.104600
     35 C24         -9.1310    -3.0530    -5.8140 c3         1 J1B      -0.104600
     36 C25         -7.9160    -5.1500    -7.8030 cc         1 J1B       0.344600
     37 C26         -6.6070    -4.8890    -7.3750 cd         1 J1B       0.008400
     38 C27         -4.5340     0.1040    -6.6010 c3         1 J1B       0.151800
     39 N28         -5.0690    -1.2500    -6.8000 n7         1 J1B      -0.802200
     40 H1          -0.3670    -1.0180    -0.0490 h1         1 J1B       0.100700
     41 H2          -1.0010     1.5720     1.1130 h1         1 J1B       0.049700
     42 HO2         -2.1130     0.1260     2.2150 ho         1 J1B       0.405000
     43 H3           1.1570     2.0000     1.9030 h1         1 J1B      -0.008300
     44 HN3          6.9000     2.0980     2.4120 hn         1 J1B       0.383800
     45 HN3A         8.1570     0.9890     2.2250 hn         1 J1B       0.383800
     46 HO3          0.5700     1.4760     3.9320 ho         1 J1B       0.408000
     47 H4           1.8420     1.0830     1.3970 h2         1 J1B       0.114700
     48 H5           3.4420     1.6980    -0.3000 h5         1 J1B       0.089800
     49 H8           5.0010    -1.1150     5.3680 h5         1 J1B       0.070100
     50 H10         -1.5670     1.0720    -1.1080 h1         1 J1B       0.067700
     51 H10A         0.1530     1.6320    -0.9950 h1         1 J1B       0.067700
     52 H11         -0.3910     2.0510    -3.8800 h1         1 J1B       0.069700
     53 H12          0.7000     0.5530    -5.4960 hc         1 J1B       0.056200
     54 H12A        -0.7310    -0.4920    -5.5120 hc         1 J1B       0.056200
     55 H13         -0.5910     1.3500    -7.4630 h1         1 J1B       0.066450
     56 H13A        -0.6540     2.2210    -5.8420 h1         1 J1B       0.066450
     57 H14         -2.5060     2.9470    -4.9100 h1         1 J1B       0.066450
     58 H14A        -3.9610     1.9360    -4.9450 h1         1 J1B       0.066450
     59 H15         -2.5850     1.4730    -2.9350 hc         1 J1B       0.056200
     60 H15A        -2.6810     0.0540    -3.9930 hc         1 J1B       0.056200
     61 H18         -6.9450    -0.8260    -5.9670 h1         1 J1B       0.060700
     62 H18A        -6.8390    -0.6090    -7.7200 h1         1 J1B       0.060700
     63 H23         -8.6680    -1.4530    -8.8210 hc         1 J1B       0.058533
     64 H23A       -10.2230    -1.8900    -8.1010 hc         1 J1B       0.058533
     65 H23B        -9.1240    -0.8020    -7.2410 hc         1 J1B       0.058533
     66 H24         -9.2350    -2.0880    -5.3330 hc         1 J1B       0.058533
     67 H24A        -8.4800    -3.6840    -5.2210 hc         1 J1B       0.058533
     68 H24B       -10.1050    -3.5200    -5.9010 hc         1 J1B       0.058533
     69 H27         -4.9300     0.5180    -5.6810 h1         1 J1B       0.040200
     70 H27A        -4.8240     0.7330    -7.4340 h1         1 J1B       0.040200
     71 HN28        -4.7880    -1.8350    -6.0380 hn         1 J1B       0.370800
     72 N3           7.5580     1.4870     2.8530 nv         1 J1B      -0.836500
     73 HN10        -5.5920    -8.0110    -7.3050 hn         1 J1B       0.345500
     74 O5          -4.5710    -5.7970    -6.8570 o          1 J1B      -0.530500
     75 N9          -7.9320    -8.6900    -8.0390 nz         1 J1B      -0.730600
     76 H91         -7.8090    -9.2320    -7.2070 hn         1 J1B       0.477800
     77 C16         -3.0080     0.0430    -6.5160 c3         1 J1B       0.155800
     78 HN12        -9.5050    -4.1230    -8.6810 hn         1 J1B       0.470800
     79 H16         -2.6110    -0.3710    -7.4360 h1         1 J1B       0.050700
     80 HN9         -8.9030    -8.6660    -8.2810 hn         1 J1B       0.477800
     81 HN9A        -7.4130    -9.1040    -8.7880 hn         1 J1B       0.477800
     82 H16A        -2.7170    -0.5860    -5.6830 h1         1 J1B       0.050700
@<TRIPOS>BOND
     1     1     3 1
     2     1     5 1
     3     1    20 1
     4     2    10 1
     5     2    12 1
     6     2    19 1
     7     3    10 1
     8     4    20 1
     9     4    22 1
    10     5     7 1
    11     5     8 1
    12     6    12 2
    13     6    14 1
    14     8     9 1
    15     8    10 1
    16    72    16 1
    17    11    16 ar
    18    11    17 ar
    19    13    17 ar
    20    13    19 ar
    21    74    31 2
    22    14    16 ar
    23    14    19 ar
    24    15    26 1
    25    15    27 1
    26    15    77 1
    27    18    30 2
    28    18    36 1
    29    75    30 1
    30    21    30 1
    31    21    31 1
    32    22    24 1
    33    22    28 1
    34    23    32 2
    35    23    37 1
    36    24    26 1
    37    25    33 1
    38    25    36 1
    39    27    28 1
    40    77    38 1
    41    29    32 1
    42    29    39 1
    43    31    37 1
    44    32    33 1
    45    33    34 1
    46    33    35 1
    47    36    37 2
    48    38    39 1
    49     1    40 1
    50     5    41 1
    51     7    42 1
    52     8    43 1
    53    72    44 1
    54    72    45 1
    55     9    46 1
    56    10    47 1
    57    12    48 1
    58    17    49 1
    59    75    80 1
    60    75    81 1
    61    20    50 1
    62    20    51 1
    63    21    73 1
    64    22    52 1
    65    24    53 1
    66    24    54 1
    67    25    78 1
    68    26    55 1
    69    26    56 1
    70    27    57 1
    71    27    58 1
    72    28    59 1
    73    28    60 1
    74    77    79 1
    75    77    82 1
    76    29    61 1
    77    29    62 1
    78    34    63 1
    79    34    64 1
    80    34    65 1
    81    35    66 1
    82    35    67 1
    83    35    68 1
    84    38    69 1
    85    38    70 1
    86    39    71 1
    87    76    75 1
@<TRIPOS>SUBSTRUCTURE
     1 J1B         1 TEMP              0 ****  ****    0 ROOT
