@<TRIPOS>MOLECULE
molecule
   81    86     1     0     0
SMALL
bcc


@<TRIPOS>ATOM
      1 C1           0.0000     0.0000     0.0000 c3         1 J1C       0.145100
      2 N1           3.2310     0.5010     1.5020 na         1 J1C      -0.272000
      3 O1           1.4380     0.0000     0.0000 os         1 J1C      -0.388600
      4 S1          -0.0820    -0.0460    -2.7340 ss         1 J1C      -0.355200
      5 C2          -0.4580     0.6570     1.3160 c3         1 J1C       0.055100
      6 N2           5.0800     1.5630     1.0360 nc         1 J1C      -0.560100
      7 O2          -1.2590    -0.2480     2.0760 oh         1 J1C      -0.572800
      8 C3           0.8620     0.9720     2.0630 c3         1 J1C       0.064100
      9 O3           0.7400     0.6810     3.4560 oh         1 J1C      -0.534800
     10 C4           1.8590     0.0000     1.3810 c3         1 J1C       0.256800
     11 N4           6.2160     0.1000     4.2070 nb         1 J1C      -0.810000
     12 C5           3.8740     1.3150     0.6160 cd         1 J1C       0.431700
     13 N5           4.0450    -0.4650     3.6530 nb         1 J1C      -0.771000
     14 C6           5.2870     0.9290     2.2150 ca         1 J1C      -0.223200
     15 N6          -2.4710     1.3910    -6.3190 n3         1 J1C      -0.705600
     16 C7           6.3670     0.8330     3.1100 ca         1 J1C       0.698200
     17 C8           5.0800    -0.5240     4.4620 ca         1 J1C       0.741900
     18 N8          -8.2400    -6.5310    -8.0400 nc         1 J1C      -0.608300
     19 C9           4.1030     0.2420     2.5290 ca         1 J1C       0.480800
     20 C10         -0.5190     0.8060    -1.1930 c3         1 J1C       0.009700
     21 N10         -6.2190    -7.4150    -7.2440 ns         1 J1C      -0.451400
     22 C11         -0.7720     1.0420    -4.0100 c3         1 J1C       0.015400
     23 N11         -6.1170    -3.8110    -7.0570 ne         1 J1C      -0.523300
     24 C12         -0.3760     0.5210    -5.3950 c3         1 J1C      -0.108900
     25 N12         -8.6040    -4.1990    -8.1430 nu         1 J1C      -0.750000
     26 C13         -1.0110     1.4080    -6.4690 c3         1 J1C       0.152300
     27 C14         -2.8770     1.9320    -5.0160 c3         1 J1C       0.152300
     28 C15         -2.2990     1.0610    -3.8980 c3         1 J1C      -0.108900
     29 C18         -6.3950    -1.4420    -6.9040 c          1 J1C       0.582800
     30 C19         -7.4720    -7.5660    -7.7530 cd         1 J1C       0.476800
     31 C20         -5.7190    -6.1830    -7.0050 c          1 J1C       0.711700
     32 C21         -6.9280    -2.7920    -7.1010 cf         1 J1C       0.412300
     33 C22         -8.4020    -2.9750    -7.3520 c3         1 J1C       0.176900
     34 C23         -8.9440    -1.7700    -8.1240 c3         1 J1C      -0.102100
     35 C24         -9.1370    -3.1020    -6.0150 c3         1 J1C      -0.102100
     36 C25         -7.8200    -5.2890    -7.8330 cc         1 J1C       0.360600
     37 C26         -6.5400    -5.0610    -7.2840 cd         1 J1C      -0.015600
     38 C27         -4.5320     0.0990    -6.6020 c3         1 J1C       0.107000
     39 N28         -5.0650    -1.2520    -6.8000 ns         1 J1C      -0.548900
     40 H1          -0.3670    -1.0180    -0.0480 h1         1 J1C       0.091700
     41 H2          -1.0010     1.5720     1.1110 h1         1 J1C       0.053700
     42 HO2         -2.1290     0.1030     2.1680 ho         1 J1C       0.412000
     43 H3           1.1580     2.0010     1.9010 h1         1 J1C       0.065700
     44 HN3          8.0930     1.8690     3.6090 hn         1 J1C       0.410800
     45 HN3A         6.9170     2.0700     2.3510 hn         1 J1C       0.410800
     46 HO3          0.0590     1.1790     3.0360 ho         1 J1C       0.418000
     47 H4           1.7710    -0.9930     1.8040 h2         1 J1C       0.115700
     48 H5           3.2380     2.1890     0.6880 h5         1 J1C       0.075800
     49 H8           5.0010    -1.1110     5.3690 h5         1 J1C       0.067100
     50 H10         -1.5960     0.8980    -1.1250 h1         1 J1C       0.063700
     51 H10A        -0.0710     1.7920    -1.1860 h1         1 J1C       0.063700
     52 H11         -0.2350     1.8400    -3.5100 h1         1 J1C       0.089700
     53 H12         -0.7310    -0.4960    -5.5120 hc         1 J1C       0.057700
     54 H12A         0.7020     0.5480    -5.4960 hc         1 J1C       0.057700
     55 H13         -0.6490     2.4230    -6.3570 h1         1 J1C       0.070700
     56 H13A        -0.7460     1.0310    -7.4500 h1         1 J1C       0.070700
     57 H14         -2.0980     2.6230    -4.7190 h1         1 J1C       0.070700
     58 H14A        -3.8980     2.2730    -4.8880 h1         1 J1C       0.070700
     59 H15         -2.6790     0.0510    -3.9940 hc         1 J1C       0.057700
     60 H15A        -2.5850     1.4710    -2.9370 hc         1 J1C       0.057700
     61 H23         -8.2420    -1.4950    -8.9020 hc         1 J1C       0.064033
     62 H23A        -9.0770    -0.9360    -7.4460 hc         1 J1C       0.064033
     63 H23B        -9.8970    -2.0270    -8.5720 hc         1 J1C       0.064033
     64 H24         -8.5520    -3.7110    -5.3370 hc         1 J1C       0.064033
     65 H24A       -10.1020    -3.5670    -6.1760 hc         1 J1C       0.064033
     66 H24B        -9.2780    -2.1170    -5.5850 hc         1 J1C       0.064033
     67 H27         -4.8230     0.7280    -7.4350 h1         1 J1C       0.067200
     68 H27A        -4.9290     0.5130    -5.6820 h1         1 J1C       0.067200
     69 HN28        -4.4400    -2.0290    -6.8850 hn         1 J1C       0.337500
     70 N3           7.5580     1.4890     2.8530 nv         1 J1C      -0.851500
     71 HN10        -5.6630    -8.2230    -7.0460 hn         1 J1C       0.347500
     72 O4          -7.1540    -0.4930    -6.8330 o          1 J1C      -0.594100
     73 O5          -4.5940    -6.0400    -6.5590 o          1 J1C      -0.534500
     74 N9          -7.9490    -8.8270    -7.9740 nz         1 J1C      -0.733600
     75 H91         -8.0250    -9.3130    -7.1020 hn         1 J1C       0.480133
     76 C16         -3.0050     0.0380    -6.5180 c3         1 J1C       0.137800
     77 HN12        -9.2830    -4.2380    -8.8770 hn         1 J1C       0.473800
     78 H16         -2.7150    -0.5910    -5.6850 h1         1 J1C       0.045200
     79 HN9         -8.8520    -8.7710    -8.4040 hn         1 J1C       0.480133
     80 HN9A        -7.3220    -9.3200    -8.5780 hn         1 J1C       0.480133
     81 H16A        -2.6090    -0.3760    -7.4370 h1         1 J1C       0.045200
@<TRIPOS>BOND
     1     1     3 1
     2     1     5 1
     3     1    20 1
     4     2    10 1
     5     2    12 1
     6     2    19 1
     7     3    10 1
     8     4    20 1
     9     4    22 1
    10     5     7 1
    11     5     8 1
    12     6    12 2
    13     6    14 1
    14     8     9 1
    15     8    10 1
    16    70    16 1
    17    11    16 ar
    18    11    17 ar
    19    72    29 2
    20    13    17 ar
    21    13    19 ar
    22    73    31 2
    23    14    16 ar
    24    14    19 ar
    25    15    26 1
    26    15    27 1
    27    15    76 1
    28    18    30 2
    29    18    36 1
    30    74    30 1
    31    21    30 1
    32    21    31 1
    33    22    24 1
    34    22    28 1
    35    23    32 2
    36    23    37 1
    37    24    26 1
    38    25    33 1
    39    25    36 1
    40    27    28 1
    41    76    38 1
    42    29    32 1
    43    29    39 1
    44    31    37 1
    45    32    33 1
    46    33    34 1
    47    33    35 1
    48    36    37 2
    49    38    39 1
    50     1    40 1
    51     5    41 1
    52     7    42 1
    53     8    43 1
    54    70    44 1
    55    70    45 1
    56     9    46 1
    57    10    47 1
    58    12    48 1
    59    17    49 1
    60    74    79 1
    61    74    80 1
    62    20    50 1
    63    20    51 1
    64    21    71 1
    65    22    52 1
    66    24    53 1
    67    24    54 1
    68    25    77 1
    69    26    55 1
    70    26    56 1
    71    27    57 1
    72    27    58 1
    73    28    59 1
    74    28    60 1
    75    76    78 1
    76    76    81 1
    77    34    61 1
    78    34    62 1
    79    34    63 1
    80    35    64 1
    81    35    65 1
    82    35    66 1
    83    38    67 1
    84    38    68 1
    85    39    69 1
    86    75    74 1
@<TRIPOS>SUBSTRUCTURE
     1 J1C         1 TEMP              0 ****  ****    0 ROOT
