@<TRIPOS>MOLECULE
molecule
   65    69     1     0     0
SMALL
bcc


@<TRIPOS>ATOM
      1 C10          0.0000     0.0000     0.0000 c3         1 J1E       0.099100
      2 C13          1.6030    -1.1440     2.1090 c3         1 J1E       0.213200
      3 C15          4.0840    -1.1450     3.4890 c3         1 J1E      -0.005300
      4 C17          6.3330    -1.0350     4.5720 c3         1 J1E       0.058300
      5 C20          9.4100    -1.6000     8.4670 ca         1 J1E      -0.077500
      6 C21         10.1090    -2.7660     8.1670 ca         1 J1E      -0.163000
      7 C22         11.0640    -3.2420     9.0460 ca         1 J1E       0.132900
      8 C24         10.6330    -1.4010    10.5240 ca         1 J1E      -0.105000
      9 C01         -6.4810    -0.5940     1.7290 ca         1 J1E      -0.141000
     10 C02         -5.2040    -0.2530     2.1700 ca         1 J1E      -0.077500
     11 C03         -5.0530     0.5670     3.2860 ca         1 J1E      -0.139000
     12 C04         -6.1670     1.0400     3.9490 ca         1 J1E      -0.103000
     13 C05         -7.4330     0.7000     3.5080 ca         1 J1E      -0.167000
     14 C06         -7.5910    -0.1150     2.4000 ca         1 J1E       0.132900
     15 C07         -4.0070    -0.7640     1.4540 cc         1 J1E       0.325800
     16 C08         -2.7010    -0.5200     1.7640 cd         1 J1E      -0.260600
     17 C09          1.5310     0.0000     0.0000 c3         1 J1E       0.129100
     18 C11         -0.5050    -1.2200     0.7760 c3         1 J1E       0.072000
     19 C12          0.0750    -1.1880     2.1920 c3         1 J1E       0.123100
     20 C14          2.0410     1.2490    -0.7210 c3         1 J1E       0.150400
     21 C16          4.8240    -1.0660     4.8260 c3         1 J1E       0.143100
     22 C19          8.0080    -1.6400     6.3380 cc         1 J1E      -0.265600
     23 F01         -8.8300    -0.4390     1.9700 f          1 J1E      -0.138900
     24 N01         -3.9940    -1.5640     0.3740 nd         1 J1E      -0.351000
     25 N02         -2.7720    -1.7950     0.0440 nc         1 J1E      -0.203800
     26 N03         -1.9680    -1.1880     0.8430 na         1 J1E       0.137400
     27 N04          7.0390    -0.8390     5.8410 na         1 J1E       0.132400
     28 N05          6.8410     0.1250     6.6690 nc         1 J1E      -0.209800
     29 N06          7.6200     0.0120     7.6860 nd         1 J1E      -0.352000
     30 O01          2.0060     0.0000     1.3480 os         1 J1E      -0.385600
     31 O02         -0.4770     1.1940     0.6260 oh         1 J1E      -0.591800
     32 O03          3.4650     1.1900    -0.8250 oh         1 J1E      -0.600800
     33 O04         -0.3310    -2.3590     2.9020 oh         1 J1E      -0.586800
     34 O05          4.4980    -2.2080     5.6200 oh         1 J1E      -0.597800
     35 S01          2.2960    -1.0320     3.7820 ss         1 J1E      -0.293200
     36 C18          8.3790    -1.0870     7.5290 cd         1 J1E       0.327800
     37 C23         11.3250    -2.5600    10.2230 ca         1 J1E      -0.165000
     38 C25          9.6780    -0.9180     9.6520 ca         1 J1E      -0.115000
     39 F02         11.7420    -4.3740     8.7580 f          1 J1E      -0.141900
     40 H08         -0.3600    -0.0480    -1.0210 h1         1 J1E       0.064700
     41 H11          1.9620    -2.0430     1.6230 h2         1 J1E       0.068700
     42 H18          4.3990    -0.3270     2.8530 h1         1 J1E       0.080200
     43 H17          4.3120    -2.0870     3.0060 h1         1 J1E       0.080200
     44 H20          6.5690    -0.2210     3.8970 h1         1 J1E       0.081700
     45 H19          6.6430    -1.9740     4.1280 h1         1 J1E       0.081700
     46 H22          9.9050    -3.3000     7.2470 ha         1 J1E       0.141000
     47 H24         10.8410    -0.8710    11.4460 ha         1 J1E       0.140000
     48 H03         -4.0620     0.8340     3.6320 ha         1 J1E       0.131000
     49 H04         -6.0500     1.6780     4.8170 ha         1 J1E       0.137000
     50 H05         -8.3050     1.0740     4.0320 ha         1 J1E       0.145000
     51 H06         -2.3380     0.2580     2.4250 h4         1 J1E       0.190000
     52 H07          1.8900    -0.8870    -0.5070 h1         1 J1E       0.057700
     53 H09         -0.1820    -2.1250     0.2750 h1         1 J1E       0.108700
     54 H10         -0.2830    -0.3050     2.7080 h1         1 J1E       0.078700
     55 H13          1.6080     1.2950    -1.7130 h1         1 J1E       0.039700
     56 H14          1.7550     2.1310    -0.1610 h1         1 J1E       0.039700
     57 H01          4.5280    -0.1650     5.3500 h1         1 J1E       0.076700
     58 H21          8.2390    -2.6440     6.0030 h4         1 J1E       0.188000
     59 H12         -0.8680     1.7540    -0.0230 ho         1 J1E       0.414000
     60 H15          3.7580     1.8030    -1.4790 ho         1 J1E       0.408000
     61 H16         -0.3700    -2.1700     3.8250 ho         1 J1E       0.424000
     62 H26          3.9020    -1.9550     6.3050 ho         1 J1E       0.421000
     63 H23         12.0740    -2.9350    10.9100 ha         1 J1E       0.145000
     64 H25          9.1370    -0.0100     9.8890 ha         1 J1E       0.156000
     65 H02         -6.6040    -1.2310     0.8620 ha         1 J1E       0.167000
@<TRIPOS>BOND
     1    25    24 2
     2    25    26 1
     3    33    19 1
     4    24    15 1
     5    26    18 1
     6    26    16 1
     7    18    19 1
     8    18     1 1
     9     2    19 1
    10     2    35 1
    11     2    30 1
    12     3    35 1
    13     3    21 1
    14    17     1 1
    15    17    30 1
    16    17    20 1
    17     4    21 1
    18     4    27 1
    19     1    31 1
    20    15    16 2
    21    15    10 1
    22    11    10 ar
    23    11    12 ar
    24    32    20 1
    25    21    34 1
    26    28    27 1
    27    28    29 2
    28    27    22 1
    29    10     9 ar
    30    12    13 ar
    31    29    36 1
    32    22    36 2
    33     9    14 ar
    34    13    14 ar
    35    36     5 1
    36    14    23 1
    37     5    38 ar
    38     5     6 ar
    39    38     8 ar
    40     6     7 ar
    41     8    37 ar
    42     7    37 ar
    43     7    39 1
    44     1    40 1
    45     2    41 1
    46     3    42 1
    47     3    43 1
    48     4    44 1
    49     4    45 1
    50     6    46 1
    51     8    47 1
    52     9    65 1
    53    11    48 1
    54    12    49 1
    55    13    50 1
    56    16    51 1
    57    17    52 1
    58    18    53 1
    59    19    54 1
    60    20    55 1
    61    20    56 1
    62    21    57 1
    63    22    58 1
    64    31    59 1
    65    32    60 1
    66    33    61 1
    67    34    62 1
    68    37    63 1
    69    38    64 1
@<TRIPOS>SUBSTRUCTURE
     1 J1E         1 TEMP              0 ****  ****    0 ROOT
