@<TRIPOS>MOLECULE
molecule
   47    49     1     0     0
SMALL
bcc


@<TRIPOS>ATOM
      1 N            0.0000     0.0000     0.0000 ns         1 J1G      -0.565900
      2 CA           1.4650     0.0000     0.0000 c3         1 J1G       0.104000
      3 C            1.9680     0.0000     1.4210 c          1 J1G       0.661100
      4 O            1.1800    -0.0010     2.3430 o          1 J1G      -0.559100
      5 CAG          1.7880    -3.5720    -1.1720 ca         1 J1G      -0.107000
      6 CAH          3.5250    -2.2620    -2.2100 ca         1 J1G      -0.107000
      7 CAI          1.3320    -2.4420    -0.5230 ca         1 J1G      -0.117000
      8 CAJ          3.0640    -1.1400    -1.5510 ca         1 J1G      -0.117000
      9 CAK          2.7560    -5.9260    -2.5220 ca         1 J1G      -0.155500
     10 CAL          4.4940    -4.6150    -3.5600 ca         1 J1G      -0.155500
     11 CAM         -4.1420     2.3930     0.8020 c3         1 J1G      -0.084900
     12 CAN         -3.9680     1.2330     1.8030 c3         1 J1G      -0.084900
     13 CAO         -2.7240     2.6090     0.2180 c3         1 J1G      -0.070400
     14 CAP         -2.7210     0.4500     1.3540 c3         1 J1G      -0.070400
     15 CAT         -0.6740     1.1630     0.0970 c          1 J1G       0.677100
     16 CAU          3.2230    -7.0530    -3.1710 ca         1 J1G       0.129400
     17 CAV          4.9630    -5.7490    -4.1970 ca         1 J1G       0.129400
     18 CAW          2.8910    -3.4880    -2.0180 cp         1 J1G      -0.035000
     19 CAX          3.3910    -4.7000    -2.7140 cp         1 J1G       0.002000
     20 CAY          1.9680    -1.2290    -0.7110 ca         1 J1G      -0.099300
     21 CAZ          4.3260    -6.9660    -4.0090 ca         1 J1G       0.059900
     22 CBA         -2.1810     1.1620     0.0970 c3         1 J1G      -0.149700
     23 FAE          6.0430    -5.6710    -5.0040 f          1 J1G      -0.117900
     24 FAF          4.7810    -8.0700    -4.6420 f          1 J1G      -0.111900
     25 NAQ          3.2930     0.0010     1.6670 ns         1 J1G      -0.468400
     26 OAB         -0.0690     2.2100     0.1840 o          1 J1G      -0.604100
     27 OAC          3.7650    -0.0000     3.0020 oh         1 J1G      -0.359100
     28 H1          -0.5000    -0.8600    -0.1110 hn         1 J1G       0.324500
     29 H2           1.8260     0.8850    -0.5100 h1         1 J1G       0.100700
     30 H3           1.2910    -4.5220    -1.0220 ha         1 J1G       0.140500
     31 H4           4.3830    -2.1910    -2.8670 ha         1 J1G       0.140500
     32 H5           0.4740    -2.5060     0.1360 ha         1 J1G       0.139500
     33 H6           3.5560    -0.1860    -1.6990 ha         1 J1G       0.139500
     34 H7           1.8960    -5.9950    -1.8660 ha         1 J1G       0.159500
     35 H8           4.9910    -3.6640    -3.7090 ha         1 J1G       0.159500
     36 H9          -4.4790     3.2860     1.3150 hc         1 J1G       0.045200
     37 H10         -4.8350     2.1140     0.0180 hc         1 J1G       0.045200
     38 H11         -3.8190     1.6250     2.8010 hc         1 J1G       0.045200
     39 H12         -4.8380     0.5880     1.7770 hc         1 J1G       0.045200
     40 H13         -2.1150     3.1900     0.8980 hc         1 J1G       0.057700
     41 H14         -2.7800     3.0780    -0.7570 hc         1 J1G       0.057700
     42 H15         -1.9730     0.4650     2.1380 hc         1 J1G       0.057700
     43 H16         -2.9920    -0.5710     1.1130 hc         1 J1G       0.057700
     44 H17         -2.5660     0.6890    -0.7980 hc         1 J1G       0.064700
     45 H18          3.9430     0.0460     0.9070 hn         1 J1G       0.319500
     46 H19          4.6750     0.2430     3.0140 ho         1 J1G       0.398000
     47 FAD          2.6060    -8.2410    -2.9900 f          1 J1G      -0.117900
@<TRIPOS>BOND
     1    11    12 1
     2    11    13 1
     3    12    14 1
     4    27    25 1
     5    13    22 1
     6    14    22 1
     7    25     3 1
     8     4     3 2
     9    22    15 1
    10     3     2 1
    11    15     1 1
    12    15    26 2
    13     1     2 1
    14     2    20 1
    15    20     8 ar
    16    20     7 ar
    17     8     6 ar
    18     7     5 ar
    19     6    18 ar
    20     5    18 ar
    21    18    19 1
    22    19    10 ar
    23    19     9 ar
    24    10    17 ar
    25     9    16 ar
    26    17    23 1
    27    17    21 ar
    28    16    21 ar
    29    16    47 1
    30    21    24 1
    31     1    28 1
    32     2    29 1
    33     5    30 1
    34     6    31 1
    35     7    32 1
    36     8    33 1
    37     9    34 1
    38    10    35 1
    39    11    36 1
    40    11    37 1
    41    12    38 1
    42    12    39 1
    43    13    40 1
    44    13    41 1
    45    14    42 1
    46    14    43 1
    47    22    44 1
    48    25    45 1
    49    27    46 1
@<TRIPOS>SUBSTRUCTURE
     1 J1G         1 TEMP              0 ****  ****    0 ROOT
