@<TRIPOS>MOLECULE
J1G
   47    49     1     0     0
SMALL
bcc


@<TRIPOS>ATOM
      1 N            0.0000     0.0000     0.0000 ns         1 J1G      -0.174900
      2 CA           1.4650     0.0000     0.0000 c3         1 J1G       0.014000
      3 C            1.9680     0.0000     1.4210 c          1 J1G       0.562100
      4 O            1.1800    -0.0010     2.3430 o          1 J1G      -0.608100
      5 CAG          1.7880    -3.5720    -1.1720 ca         1 J1G      -0.084000
      6 CAH          3.5250    -2.2620    -2.2100 ca         1 J1G      -0.084000
      7 CAI          1.3320    -2.4420    -0.5230 ca         1 J1G      -0.089000
      8 CAJ          3.0640    -1.1400    -1.5510 ca         1 J1G      -0.089000
      9 CAK          2.7560    -5.9260    -2.5220 ca         1 J1G      -0.127500
     10 CAL          4.4940    -4.6150    -3.5600 ca         1 J1G      -0.127500
     11 CAM         -4.1420     2.3930     0.8020 c3         1 J1G      -0.024900
     12 CAN         -3.9680     1.2330     1.8030 c3         1 J1G      -0.024900
     13 CAO         -2.7240     2.6090     0.2180 c3         1 J1G      -0.014900
     14 CAP         -2.7210     0.4500     1.3540 c3         1 J1G      -0.014900
     15 CAT         -0.6740     1.1630     0.0970 c          1 J1G       0.593100
     16 CAU          3.2230    -7.0530    -3.1710 ca         1 J1G       0.112900
     17 CAV          4.9630    -5.7490    -4.1970 ca         1 J1G       0.112900
     18 CAW          2.8910    -3.4880    -2.0180 cp         1 J1G      -0.037000
     19 CAX          3.3910    -4.7000    -2.7140 cp         1 J1G       0.011000
     20 CAY          1.9680    -1.2290    -0.7110 ca         1 J1G      -0.111300
     21 CAZ          4.3260    -6.9660    -4.0090 ca         1 J1G       0.052900
     22 CBA         -2.1810     1.1620     0.0970 c3         1 J1G      -0.123700
     23 FAE          6.0430    -5.6710    -5.0040 f          1 J1G      -0.109900
     24 FAF          4.7810    -8.0700    -4.6420 f          1 J1G      -0.102900
     25 NAQ          3.2930     0.0010     1.6670 ns         1 J1G      -0.049400
     26 OAB         -0.0690     2.2100     0.1840 o          1 J1G      -0.646100
     27 OAC          3.7650    -0.0000     3.0020 oh         1 J1G      -0.436100
     28 H1          -0.5000    -0.8600    -0.1110 hn         1 J1G       0.183500
     29 H2           1.8260     0.8850    -0.5100 h1         1 J1G       0.069700
     30 H3           1.2910    -4.5220    -1.0220 ha         1 J1G       0.116500
     31 H4           4.3830    -2.1910    -2.8670 ha         1 J1G       0.116500
     32 H5           0.4740    -2.5060     0.1360 ha         1 J1G       0.114500
     33 H6           3.5560    -0.1860    -1.6990 ha         1 J1G       0.114500
     34 H7           1.8960    -5.9950    -1.8660 ha         1 J1G       0.135500
     35 H8           4.9910    -3.6640    -3.7090 ha         1 J1G       0.135500
     36 H9          -4.4790     3.2860     1.3150 hc         1 J1G       0.013950
     37 H10         -4.8350     2.1140     0.0180 hc         1 J1G       0.013950
     38 H11         -3.8190     1.6250     2.8010 hc         1 J1G       0.013950
     39 H12         -4.8380     0.5880     1.7770 hc         1 J1G       0.013950
     40 H13         -2.1150     3.1900     0.8980 hc         1 J1G       0.026700
     41 H14         -2.7800     3.0780    -0.7570 hc         1 J1G       0.026700
     42 H15         -1.9730     0.4650     2.1380 hc         1 J1G       0.026700
     43 H16         -2.9920    -0.5710     1.1130 hc         1 J1G       0.026700
     44 H17         -2.5660     0.6890    -0.7980 hc         1 J1G       0.034700
     45 H18          3.9430     0.0460     0.9070 hn         1 J1G       0.156500
     46 H19          4.6750     0.2430     3.0140 ho         1 J1G       0.392000
     47 FAD          2.6060    -8.2410    -2.9900 f          1 J1G      -0.109900
@<TRIPOS>BOND
     1     1     2 1   
     2     1    15 1   
     3     1    28 1   
     4     2     3 1   
     5     2    20 1   
     6     2    29 1   
     7     3     4 2   
     8     3    25 1   
     9     5     7 ar  
    10     5    18 ar  
    11     5    30 1   
    12     6     8 ar  
    13     6    18 ar  
    14     6    31 1   
    15     7    20 ar  
    16     7    32 1   
    17     8    20 ar  
    18     8    33 1   
    19     9    16 ar  
    20     9    19 ar  
    21     9    34 1   
    22    10    17 ar  
    23    10    19 ar  
    24    10    35 1   
    25    11    12 1   
    26    11    13 1   
    27    11    36 1   
    28    11    37 1   
    29    12    14 1   
    30    12    38 1   
    31    12    39 1   
    32    13    22 1   
    33    13    40 1   
    34    13    41 1   
    35    14    22 1   
    36    14    42 1   
    37    14    43 1   
    38    15    22 1   
    39    15    26 2   
    40    16    21 ar  
    41    16    47 1   
    42    17    21 ar  
    43    17    23 1   
    44    18    19 1   
    45    21    24 1   
    46    22    44 1   
    47    25    27 1   
    48    25    45 1   
    49    27    46 1   
@<TRIPOS>SUBSTRUCTURE
     1 J1G         1 TEMP              0 ****  ****    0 ROOT
