@<TRIPOS>MOLECULE
molecule
   67    69     1     0     0
SMALL
bcc


@<TRIPOS>ATOM
      1 C25          0.0000     0.0000     0.0000 c          1 J1J       0.682700
      2 O26          1.2160     0.0000     0.0000 o          1 J1J      -0.595100
      3 C27         -0.7380     0.0000     1.2780 ca         1 J1J      -0.156600
      4 C28         -2.1400     0.0000     1.2780 ca         1 J1J      -0.080000
      5 C29         -2.8360     0.0000     2.4510 ca         1 J1J      -0.223000
      6 C30         -2.1580    -0.0000     3.6680 ca         1 J1J       0.126600
      7 C31         -0.7510    -0.0010     3.6830 ca         1 J1J      -0.151800
      8 C32         -0.0420    -0.0060     2.4830 ca         1 J1J       0.018000
      9 C33         -0.0540    -0.0020     4.9770 cc         1 J1J       0.212900
     10 C34         -0.8050    -0.0010     6.1180 cd         1 J1J      -0.335200
     11 C35         -2.2060    -0.0000     6.0390 c          1 J1J       0.707700
     12 O36         -2.8580     0.0000     7.0690 o          1 J1J      -0.623500
     13 N37         -2.8510    -0.0000     4.8600 ns         1 J1J      -0.429100
     14 O38          1.2980    -0.0030     5.0370 oh         1 J1J      -0.488100
     15 N24         -0.6730     0.0070    -1.1680 ns         1 J1J      -0.572900
     16 C22         -0.8060     0.6190    -3.5120 c          1 J1J       0.655100
     17 O23         -1.9230     1.0080    -3.2450 o          1 J1J      -0.599100
     18 C20          0.4220    -1.4230    -2.8220 c3         1 J1J      -0.041100
     19 C17          1.3840    -1.9860    -1.8090 ca         1 J1J      -0.085300
     20 C16          0.9050    -2.6530    -0.6970 ca         1 J1J      -0.116000
     21 C18          2.7470    -1.8440    -1.9950 ca         1 J1J      -0.116000
     22 C15          1.7880    -3.1710     0.2320 ca         1 J1J      -0.113500
     23 C19          3.6300    -2.3610    -1.0650 ca         1 J1J      -0.113500
     24 C14          3.1500    -3.0220     0.0490 ca         1 J1J      -0.111000
     25 C2          -1.4000     2.5630   -10.6500 c3         1 J1J       0.082800
     26 C3          -0.5230     1.9470    -9.5590 c3         1 J1J      -0.073400
     27 C4          -1.2880     1.9410    -8.2330 c3         1 J1J      -0.077400
     28 C5          -0.4110     1.3250    -7.1420 c3         1 J1J      -0.098400
     29 N7          -2.3290     1.2450   -12.8510 nz         1 J1J      -0.757600
     30 C8          -1.1110     1.8770   -12.9310 c2         1 J1J       0.404100
     31 C21          0.0590     0.0130    -2.4360 c3         1 J1J       0.056700
     32 N10         -0.3590     1.7780   -14.0780 nz         1 J1J      -0.757600
     33 C12         -1.1760     1.3190    -5.8170 c3         1 J1J       0.120000
     34 N13         -0.3360     0.7300    -4.7700 ns         1 J1J      -0.594900
     35 N26         -0.6680     2.5690   -11.9190 n2         1 J1J      -0.376900
     36 H24         -1.6740     0.0320    -1.1680 hn         1 J1J       0.335500
     37 H28         -3.0440     0.0680     0.6860 ha         1 J1J       0.161000
     38 H32          1.0090     0.2250     2.6100 ha         1 J1J       0.181000
     39 H29         -3.9190    -0.0000     2.4470 ha         1 J1J       0.141000
     40 H37         -3.8510    -0.0000     4.8460 hn         1 J1J       0.343500
     41 H34         -0.3190    -0.0060     7.0860 ha         1 J1J       0.175000
     42 H38          1.5790     0.4620     5.8080 ho         1 J1J       0.443000
     43 H21          0.9640     0.5980    -2.3280 h1         1 J1J       0.101700
     44 H13          0.6010     0.4480    -4.9810 hn         1 J1J       0.320500
     45 H201        -0.4750    -2.0290    -2.8450 hc         1 J1J       0.046200
     46 H202         0.8860    -1.4270    -3.8010 hc         1 J1J       0.046200
     47 H16         -0.1630    -2.7690    -0.5540 ha         1 J1J       0.118500
     48 H18          3.1220    -1.3250    -2.8690 ha         1 J1J       0.118500
     49 H15          1.4130    -3.6920     1.1050 ha         1 J1J       0.133000
     50 H19          4.6970    -2.2470    -1.2100 ha         1 J1J       0.133000
     51 H14          3.8420    -3.4280     0.7770 ha         1 J1J       0.136000
     52 H21C        -1.6560     3.5790   -10.3770 h1         1 J1J       0.093700
     53 H22C        -2.3060     1.9790   -10.7590 h1         1 J1J       0.093700
     54 H31C        -0.2670     0.9300    -9.8320 hc         1 J1J       0.078700
     55 H32C         0.3820     2.5310    -9.4500 hc         1 J1J       0.078700
     56 H41C        -2.1940     1.3560    -8.3420 hc         1 J1J       0.061700
     57 H42C        -1.5450     2.9570    -7.9600 hc         1 J1J       0.061700
     58 H51C         0.4950     1.9090    -7.0340 hc         1 J1J       0.058200
     59 H52C        -0.1550     0.3080    -7.4150 hc         1 J1J       0.058200
     60 H121        -1.4330     2.3350    -5.5440 h1         1 J1J       0.058700
     61 H122        -2.0810     0.7340    -5.9250 h1         1 J1J       0.058700
     62 H71N        -2.2830     0.5170   -12.1660 hn         1 J1J       0.497967
     63 H72N        -2.5610     0.8530   -13.7420 hn         1 J1J       0.497967
     64 H101        -0.8840     2.1330   -14.8530 hn         1 J1J       0.497967
     65 H102        -0.1280     0.8180   -14.2440 hn         1 J1J       0.497967
     66 H73         -3.0310     1.9080   -12.5850 hn         1 J1J       0.497967
     67 H103         0.4820     2.3100   -13.9730 hn         1 J1J       0.497967
@<TRIPOS>BOND
     1     1     2 2
     2     1     3 1
     3     1    15 1
     4     3     4 ar
     5     3     8 ar
     6     4     5 ar
     7     5     6 ar
     8     6     7 ar
     9     6    13 1
    10     7     8 ar
    11     7     9 1
    12     9    10 2
    13     9    14 1
    14    10    11 1
    15    11    12 2
    16    11    13 1
    17    15    31 1
    18    16    17 2
    19    16    31 1
    20    16    34 1
    21    18    19 1
    22    18    31 1
    23    19    20 ar
    24    19    21 ar
    25    20    22 ar
    26    21    23 ar
    27    22    24 ar
    28    23    24 ar
    29    25    26 1
    30    25    35 1
    31    26    27 1
    32    27    28 1
    33    28    33 1
    34    29    30 1
    35    30    32 1
    36    30    35 2
    37    33    34 1
    38    15    36 1
    39     4    37 1
    40     8    38 1
    41     5    39 1
    42    13    40 1
    43    10    41 1
    44    14    42 1
    45    31    43 1
    46    34    44 1
    47    18    45 1
    48    18    46 1
    49    20    47 1
    50    21    48 1
    51    22    49 1
    52    23    50 1
    53    24    51 1
    54    25    52 1
    55    25    53 1
    56    26    54 1
    57    26    55 1
    58    27    56 1
    59    27    57 1
    60    28    58 1
    61    28    59 1
    62    33    60 1
    63    33    61 1
    64    29    62 1
    65    29    63 1
    66    32    64 1
    67    32    65 1
    68    66    29 1
    69    67    32 1
@<TRIPOS>SUBSTRUCTURE
     1 J1J         1 TEMP              0 ****  ****    0 ROOT
