@<TRIPOS>MOLECULE
J1V
   50    52     1     0     0
SMALL
bcc


@<TRIPOS>ATOM
      1 CAP          0.0000     0.0000     0.0000 c3         1 J1V      -0.014900
      2 CAN          1.5300     0.0000     0.0000 c3         1 J1V      -0.024400
      3 CAM          2.0390     0.0000     1.4430 c3         1 J1V      -0.025400
      4 CAO          1.5290    -1.2490     2.1640 c3         1 J1V      -0.024400
      5 CAQ         -0.0010    -1.2500     2.1630 c3         1 J1V      -0.014900
      6 CBB         -0.5100    -1.2500     0.7210 c3         1 J1V      -0.118700
      7 CAU         -2.0180    -1.2510     0.7190 c          1 J1V       0.591100
      8 OAB         -2.6240    -0.3410     0.1940 o          1 J1V      -0.646100
      9 N           -2.6920    -2.2610     1.3030 ns         1 J1V      -0.176900
     10 CA          -4.1570    -2.2620     1.3020 c3         1 J1V       0.014000
     11 C           -4.6580    -2.8620     0.0140 c          1 J1V       0.561100
     12 O           -3.8690    -3.2520    -0.8210 o          1 J1V      -0.609100
     13 NAR         -5.9820    -2.9660    -0.2100 ns         1 J1V      -0.049400
     14 OAC         -6.4540    -3.5310    -1.4200 oh         1 J1V      -0.436100
     15 CAZ         -4.6590    -3.0760     2.4650 ca         1 J1V      -0.110300
     16 CAJ         -5.7550    -2.6430     3.1880 ca         1 J1V      -0.089000
     17 CAH         -6.2200    -3.3850     4.2550 ca         1 J1V      -0.084000
     18 CAI         -4.0260    -4.2590     2.8030 ca         1 J1V      -0.089000
     19 CAG         -4.4830    -5.0100     3.8680 ca         1 J1V      -0.084000
     20 CAX         -5.5830    -4.5740     4.6030 cp         1 J1V      -0.037000
     21 CAY         -6.0780    -5.3760     5.7500 cp         1 J1V       0.011000
     22 CAK         -7.1840    -4.9450     6.4780 ca         1 J1V      -0.127500
     23 CAV         -7.6430    -5.6940     7.5440 ca         1 J1V       0.112400
     24 FAD         -8.7160    -5.2780     8.2510 f          1 J1V      -0.109900
     25 CBA         -7.0020    -6.8750     7.8910 ca         1 J1V       0.052900
     26 FAF         -7.4530    -7.6050     8.9330 f          1 J1V      -0.101900
     27 CAW         -5.9000    -7.3070     7.1680 ca         1 J1V       0.112400
     28 FAE         -5.2780    -8.4570     7.5080 f          1 J1V      -0.109900
     29 CAL         -5.4390    -6.5650     6.0970 ca         1 J1V      -0.127500
     30 H1          -0.3600     0.8830     0.5140 hc         1 J1V       0.022450
     31 H2          -0.3600    -0.0020    -1.0220 hc         1 J1V       0.022450
     32 H3           1.8890     0.8860    -0.5090 hc         1 J1V       0.013700
     33 H4           1.8890    -0.8860    -0.5090 hc         1 J1V       0.013700
     34 H5           3.1220    -0.0020     1.4420 hc         1 J1V       0.014200
     35 H6           1.6750     0.8840     1.9530 hc         1 J1V       0.014200
     36 H7           1.8880    -1.2460     3.1860 hc         1 J1V       0.013700
     37 H8           1.8890    -2.1330     1.6520 hc         1 J1V       0.013700
     38 H9          -0.3610    -2.1360     2.6710 hc         1 J1V       0.022450
     39 H10         -0.3620    -0.3640     2.6720 hc         1 J1V       0.022450
     40 H11         -0.1440    -2.1330     0.2110 hc         1 J1V       0.045700
     41 H12         -2.1910    -3.0240     1.7140 hn         1 J1V       0.185500
     42 H13         -4.5180    -1.2450     1.3910 h1         1 J1V       0.070700
     43 H14         -6.6330    -2.6150     0.4650 hn         1 J1V       0.156500
     44 H15         -7.3640    -3.3130    -1.5350 ho         1 J1V       0.392000
     45 H16         -6.2500    -1.7180     2.9170 ha         1 J1V       0.114000
     46 H17         -7.0780    -3.0420     4.8220 ha         1 J1V       0.116500
     47 H18         -3.1710    -4.5970     2.2300 ha         1 J1V       0.114000
     48 H19         -3.9850    -5.9350     4.1330 ha         1 J1V       0.116500
     49 H20         -7.7080    -4.0430     6.1840 ha         1 J1V       0.135500
     50 H21         -4.5780    -6.9030     5.5340 ha         1 J1V       0.135500
@<TRIPOS>BOND
     1     1     2 1   
     2     1     6 1   
     3     1    30 1   
     4     1    31 1   
     5     2     3 1   
     6     2    32 1   
     7     2    33 1   
     8     3     4 1   
     9     3    34 1   
    10     3    35 1   
    11     4     5 1   
    12     4    36 1   
    13     4    37 1   
    14     5     6 1   
    15     5    38 1   
    16     5    39 1   
    17     6     7 1   
    18     6    40 1   
    19     7     8 2   
    20     7     9 1   
    21     9    10 1   
    22     9    41 1   
    23    10    11 1   
    24    10    15 1   
    25    10    42 1   
    26    11    12 2   
    27    11    13 1   
    28    13    14 1   
    29    13    43 1   
    30    14    44 1   
    31    15    16 ar  
    32    15    18 ar  
    33    16    17 ar  
    34    16    45 1   
    35    17    20 ar  
    36    17    46 1   
    37    18    19 ar  
    38    18    47 1   
    39    19    20 ar  
    40    19    48 1   
    41    20    21 1   
    42    21    22 ar  
    43    21    29 ar  
    44    22    23 ar  
    45    22    49 1   
    46    23    24 1   
    47    23    25 ar  
    48    25    26 1   
    49    25    27 ar  
    50    27    28 1   
    51    27    29 ar  
    52    29    50 1   
@<TRIPOS>SUBSTRUCTURE
     1 J1V         1 TEMP              0 ****  ****    0 ROOT
