@<TRIPOS>MOLECULE
molecule
   50    52     1     0     0
SMALL
bcc


@<TRIPOS>ATOM
      1 CAP          0.0000     0.0000     0.0000 c3         1 J1V      -0.067400
      2 CAN          1.5300     0.0000     0.0000 c3         1 J1V      -0.080900
      3 CAM          2.0390     0.0000     1.4430 c3         1 J1V      -0.081400
      4 CAO          1.5290    -1.2490     2.1640 c3         1 J1V      -0.080900
      5 CAQ         -0.0010    -1.2500     2.1630 c3         1 J1V      -0.067400
      6 CBB         -0.5100    -1.2500     0.7210 c3         1 J1V      -0.139700
      7 CAU         -2.0180    -1.2510     0.7190 c          1 J1V       0.674100
      8 OAB         -2.6240    -0.3410     0.1940 o          1 J1V      -0.604100
      9 N           -2.6920    -2.2610     1.3030 ns         1 J1V      -0.564900
     10 CA          -4.1570    -2.2620     1.3020 c3         1 J1V       0.104000
     11 C           -4.6580    -2.8620     0.0140 c          1 J1V       0.660100
     12 O           -3.8690    -3.2520    -0.8210 o          1 J1V      -0.559100
     13 NAR         -5.9820    -2.9660    -0.2100 ns         1 J1V      -0.467400
     14 OAC         -6.4540    -3.5310    -1.4200 oh         1 J1V      -0.359100
     15 CAZ         -4.6590    -3.0760     2.4650 ca         1 J1V      -0.098300
     16 CAJ         -5.7550    -2.6430     3.1880 ca         1 J1V      -0.117000
     17 CAH         -6.2200    -3.3850     4.2550 ca         1 J1V      -0.107000
     18 CAI         -4.0260    -4.2590     2.8030 ca         1 J1V      -0.117000
     19 CAG         -4.4830    -5.0100     3.8680 ca         1 J1V      -0.107000
     20 CAX         -5.5830    -4.5740     4.6030 cp         1 J1V      -0.035000
     21 CAY         -6.0780    -5.3760     5.7500 cp         1 J1V       0.002000
     22 CAK         -7.1840    -4.9450     6.4780 ca         1 J1V      -0.155500
     23 CAV         -7.6430    -5.6940     7.5440 ca         1 J1V       0.128900
     24 FAD         -8.7160    -5.2780     8.2510 f          1 J1V      -0.117900
     25 CBA         -7.0020    -6.8750     7.8910 ca         1 J1V       0.060900
     26 FAF         -7.4530    -7.6050     8.9330 f          1 J1V      -0.111900
     27 CAW         -5.9000    -7.3070     7.1680 ca         1 J1V       0.128900
     28 FAE         -5.2780    -8.4570     7.5080 f          1 J1V      -0.117900
     29 CAL         -5.4390    -6.5650     6.0970 ca         1 J1V      -0.155500
     30 H1          -0.3600     0.8830     0.5140 hc         1 J1V       0.051200
     31 H2          -0.3600    -0.0020    -1.0220 hc         1 J1V       0.051200
     32 H3           1.8890     0.8860    -0.5090 hc         1 J1V       0.043200
     33 H4           1.8890    -0.8860    -0.5090 hc         1 J1V       0.043200
     34 H5           3.1220    -0.0020     1.4420 hc         1 J1V       0.043200
     35 H6           1.6750     0.8840     1.9530 hc         1 J1V       0.043200
     36 H7           1.8880    -1.2460     3.1860 hc         1 J1V       0.043200
     37 H8           1.8890    -2.1330     1.6520 hc         1 J1V       0.043200
     38 H9          -0.3610    -2.1360     2.6710 hc         1 J1V       0.051200
     39 H10         -0.3620    -0.3640     2.6720 hc         1 J1V       0.051200
     40 H11         -0.1440    -2.1330     0.2110 hc         1 J1V       0.073700
     41 H12         -2.1910    -3.0240     1.7140 hn         1 J1V       0.324500
     42 H13         -4.5180    -1.2450     1.3910 h1         1 J1V       0.101700
     43 H14         -6.6330    -2.6150     0.4650 hn         1 J1V       0.319500
     44 H15         -7.3640    -3.3130    -1.5350 ho         1 J1V       0.398000
     45 H16         -6.2500    -1.7180     2.9170 ha         1 J1V       0.139000
     46 H17         -7.0780    -3.0420     4.8220 ha         1 J1V       0.140500
     47 H18         -3.1710    -4.5970     2.2300 ha         1 J1V       0.139000
     48 H19         -3.9850    -5.9350     4.1330 ha         1 J1V       0.140500
     49 H20         -7.7080    -4.0430     6.1840 ha         1 J1V       0.159000
     50 H21         -4.5780    -6.9030     5.5340 ha         1 J1V       0.159000
@<TRIPOS>BOND
     1     3     2 1
     2     3     4 1
     3     2     1 1
     4     4     5 1
     5    14    13 1
     6     1     6 1
     7    13    11 1
     8    12    11 2
     9     5     6 1
    10     6     7 1
    11    11    10 1
    12     7     9 1
    13     7     8 2
    14     9    10 1
    15    10    15 1
    16    15    16 ar
    17    15    18 ar
    18    16    17 ar
    19    18    19 ar
    20    17    20 ar
    21    19    20 ar
    22    20    21 1
    23    21    29 ar
    24    21    22 ar
    25    29    27 ar
    26    22    23 ar
    27    27    28 1
    28    27    25 ar
    29    23    25 ar
    30    23    24 1
    31    25    26 1
    32     1    30 1
    33     1    31 1
    34     2    32 1
    35     2    33 1
    36     3    34 1
    37     3    35 1
    38     4    36 1
    39     4    37 1
    40     5    38 1
    41     5    39 1
    42     6    40 1
    43     9    41 1
    44    10    42 1
    45    13    43 1
    46    14    44 1
    47    16    45 1
    48    17    46 1
    49    18    47 1
    50    19    48 1
    51    22    49 1
    52    29    50 1
@<TRIPOS>SUBSTRUCTURE
     1 J1V         1 TEMP              0 ****  ****    0 ROOT
