@<TRIPOS>MOLECULE
J1Z
   12    13     1     0     0
SMALL
bcc


@<TRIPOS>ATOM
      1 CAA         0.0210    0.0000    0.0600 cc        1 J1Z     -0.153100
      2 CAB         2.9470   -0.0030    3.5140 cc        1 J1Z     -0.153100
      3 CAC         1.3930    0.0010   -0.0230 cd        1 J1Z     -0.102000
      4 CAD         1.5750   -0.0040    3.5970 cd        1 J1Z     -0.102000
      5 SAE        -0.5420   -0.0020    1.6460 ss        1 J1Z      0.040200
      6 SAF         3.5100   -0.0010    1.9280 ss        1 J1Z      0.040200
      7 CAG         1.9810   -0.0010    1.2760 cd        1 J1Z     -0.110100
      8 CAH         0.9870   -0.0020    2.2980 cc        1 J1Z     -0.110100
      9 HAA        -0.6610    0.0010   -0.7890 h4        1 J1Z      0.170000
     10 HAB         3.6290   -0.0040    4.3630 h4        1 J1Z      0.170000
     11 HAC         1.9720    0.0020   -0.9490 ha        1 J1Z      0.156000
     12 HAD         0.9960   -0.0050    4.5220 ha        1 J1Z      0.156000
@<TRIPOS>BOND
     1    1    3 2   
     2    1    5 1   
     3    1    9 1   
     4    2    4 2   
     5    2    6 1   
     6    2   10 1   
     7    3    7 1   
     8    3   11 1   
     9    4    8 1   
    10    4   12 1   
    11    5    8 1   
    12    6    7 1   
    13    7    8 2   
@<TRIPOS>SUBSTRUCTURE
     1 J1Z         1 TEMP              0 ****  ****    0 ROOT
