@<TRIPOS>MOLECULE
molecule
   12    13     1     0     0
SMALL
bcc


@<TRIPOS>ATOM
      1 CAA          0.0000     0.0000     0.0000 cc         1 J1Z      -0.063100
      2 CAB          2.9680    -0.0030     3.5740 cc         1 J1Z      -0.063100
      3 CAC          1.3200     0.0000     0.0000 cd         1 J1Z      -0.114000
      4 CAD          1.6480    -0.0030     3.5740 cd         1 J1Z      -0.114000
      5 SAE         -0.6110    -0.0020     1.6430 ss         1 J1Z      -0.137800
      6 SAF          3.5790     0.0000     1.9310 ss         1 J1Z      -0.137800
      7 CAG          1.9340     0.0000     1.2720 cd         1 J1Z      -0.008100
      8 CAH          1.0340    -0.0020     2.3020 cc         1 J1Z      -0.008100
      9 HAA         -0.6180     0.0010    -0.8900 h4         1 J1Z       0.174000
     10 HAB          3.5860    -0.0050     4.4630 h4         1 J1Z       0.174000
     11 HAC          1.8960     0.0010    -0.9170 ha         1 J1Z       0.149000
     12 HAD          1.0720    -0.0050     4.4910 ha         1 J1Z       0.149000
@<TRIPOS>BOND
     1     1     3 2
     2     1     5 1
     3     2     4 2
     4     2     6 1
     5     3     7 1
     6     4     8 1
     7     5     8 1
     8     6     7 1
     9     7     8 2
    10     1     9 1
    11     2    10 1
    12     3    11 1
    13     4    12 1
@<TRIPOS>SUBSTRUCTURE
     1 J1Z         1 TEMP              0 ****  ****    0 ROOT
