@<TRIPOS>MOLECULE
molecule
   67    72     1     0     0
SMALL
bcc


@<TRIPOS>ATOM
      1 O41          0.0000     0.0000     0.0000 o          1 J20      -0.490100
      2 C40          1.2140     0.0000     0.0000 c          1 J20       0.583500
      3 C12          1.9460     0.0000     1.2680 ca         1 J20      -0.257600
      4 C13          3.3620     0.0000     1.2730 ca         1 J20       0.091000
      5 C16          4.0900    -0.0010     0.0400 cg         1 J20      -0.090000
      6 C17          4.6950    -0.0200    -0.9660 ch         1 J20      -0.045000
      7 C18          5.2140    -0.0890    -2.1120 ca         1 J20      -0.011000
      8 C19          6.4670    -0.3900    -2.7050 ca         1 J20      -0.084000
      9 C20          7.1100    -0.5140    -3.4850 ca         1 J20      -0.090500
     10 C21          6.5550    -0.2800    -4.8360 ca         1 J20       0.022100
     11 O39          6.9540    -0.1920    -6.3350 oh         1 J20      -0.517100
     12 C22          5.3580     0.0390    -4.7770 ca         1 J20      -0.090500
     13 C23          4.6310     0.1440    -3.3250 ca         1 J20      -0.084000
     14 C8           4.0400     0.0000     2.4890 ca         1 J20      -0.069300
     15 C7           3.3340     0.0010     3.6860 cp         1 J20      -0.006000
     16 C10          1.9320     0.0020     3.6650 ca         1 J20      -0.114000
     17 C11          1.2520     0.0070     2.4840 ca         1 J20      -0.070000
     18 C9           5.5110    -0.0010     2.8260 c3         1 J20       0.143200
     19 C5           5.5920     0.0010     4.3330 ca         1 J20      -0.005300
     20 C6           6.6610     0.0010     5.2010 ca         1 J20      -0.143000
     21 C1           6.4410     0.0010     6.5730 ca         1 J20       0.108100
     22 O37          7.4950     0.0020     7.4300 oh         1 J20      -0.544100
     23 C2           5.1430     0.0010     7.0680 ca         1 J20      -0.167000
     24 C3           4.0710     0.0010     6.2030 ca         1 J20      -0.072000
     25 C4           4.2880     0.0020     4.8230 cp         1 J20      -0.091000
     26 C14          6.1710    -1.2370     2.2720 ca         1 J20      -0.099300
     27 C29          5.8360    -2.4810     2.7730 ca         1 J20      -0.080250
     28 C30          6.4390    -3.6160     2.2660 ca         1 J20      -0.199000
     29 C31          7.3810    -3.5070     1.2530 ca         1 J20       0.116600
     30 O34          7.9740    -4.6210     0.7530 os         1 J20      -0.322400
     31 C38          8.9350    -4.4340    -0.2880 c3         1 J20       0.114200
     32 C32          7.7150    -2.2570     0.7520 ca         1 J20      -0.199000
     33 C33          7.1050    -1.1260     1.2590 ca         1 J20      -0.080250
     34 C15          6.1720     1.2350     2.2700 ca         1 J20      -0.099300
     35 C24          5.4130     2.1890     1.6170 ca         1 J20      -0.080250
     36 C25          6.0150     3.3220     1.1070 ca         1 J20      -0.199000
     37 C26          7.3840     3.5020     1.2500 ca         1 J20       0.116600
     38 O35          7.9800     4.6160     0.7490 os         1 J20      -0.322400
     39 C36          9.3920     4.7360     0.9320 c3         1 J20       0.114200
     40 C27          8.1430     2.5440     1.9050 ca         1 J20      -0.199000
     41 C28          7.5340     1.4150     2.4180 ca         1 J20      -0.080250
     42 H1           2.1040    -0.3750    -0.4890 h4         1 J20       0.045200
     43 H2           7.0690    -0.8120    -1.9090 ha         1 J20       0.110500
     44 H3           8.1280    -0.7380    -3.7820 ha         1 J20       0.143500
     45 H4           6.5250    -0.9800    -6.6260 ho         1 J20       0.394000
     46 H5           4.6830     0.2270    -5.6030 ha         1 J20       0.143500
     47 H6           3.5710     0.3560    -3.2510 ha         1 J20       0.110500
     48 H7           1.5040    -0.3220     4.6060 ha         1 J20       0.137000
     49 H8           0.2370    -0.2910     2.2500 ha         1 J20       0.164000
     50 H9           7.7330     0.0560     5.3420 ha         1 J20       0.174000
     51 H10          7.5450     0.6860     8.0770 ho         1 J20       0.437000
     52 H11          5.1430     0.0440     8.1510 ha         1 J20       0.136000
     53 H12          2.9910    -0.0590     6.2700 ha         1 J20       0.145000
     54 H13          4.7760    -2.6830     2.8680 ha         1 J20       0.151500
     55 H14          6.1600    -4.6480     2.0900 ha         1 J20       0.143750
     56 H15          9.6820    -5.2120    -0.3870 h1         1 J20       0.045700
     57 H16          8.3040    -4.6720    -1.1360 h1         1 J20       0.045700
     58 H17          9.2770    -3.4240    -0.4820 h1         1 J20       0.045700
     59 H18          8.5740    -2.2440     0.0920 ha         1 J20       0.143750
     60 H19          6.9850    -0.1910     0.7240 ha         1 J20       0.151500
     61 H20          4.5090     2.7170     1.8960 ha         1 J20       0.151500
     62 H21          5.4140     4.1930     0.8790 ha         1 J20       0.143750
     63 H22          9.5930     5.3800     0.0840 h1         1 J20       0.045700
     64 H23          9.8170     5.1230     1.8500 h1         1 J20       0.045700
     65 H24          9.8030     3.7700     0.6650 h1         1 J20       0.045700
     66 H25          9.1990     2.7840     1.9200 ha         1 J20       0.143750
     67 H26          8.0580     0.6210     2.9370 ha         1 J20       0.151500
@<TRIPOS>BOND
     1     1     2 2
     2     2     3 1
     3    17     3 ar
     4    17    16 ar
     5     3     4 ar
     6    16    15 ar
     7     4     5 1
     8     4    14 ar
     9    15    14 ar
    10    15    25 1
    11     5     6 3
    12    13    12 ar
    13    13     7 ar
    14    14    18 1
    15     6     7 1
    16    12    10 ar
    17    24    25 ar
    18    24    23 ar
    19    25    19 ar
    20     7     8 ar
    21    27    28 ar
    22    27    26 ar
    23    28    29 ar
    24    10    11 1
    25    10     9 ar
    26    23    21 ar
    27    18    19 1
    28    18    26 1
    29    18    34 1
    30    19    20 ar
    31     8     9 ar
    32    26    33 ar
    33    34    41 ar
    34    34    35 ar
    35    31    30 1
    36    41    40 ar
    37    29    30 1
    38    29    32 ar
    39    35    36 ar
    40    21    20 ar
    41    21    22 1
    42    40    37 ar
    43    33    32 ar
    44    36    37 ar
    45    37    38 1
    46    39    38 1
    47     2    42 1
    48     8    43 1
    49     9    44 1
    50    11    45 1
    51    12    46 1
    52    13    47 1
    53    16    48 1
    54    17    49 1
    55    20    50 1
    56    22    51 1
    57    23    52 1
    58    24    53 1
    59    27    54 1
    60    28    55 1
    61    31    56 1
    62    31    57 1
    63    31    58 1
    64    32    59 1
    65    33    60 1
    66    35    61 1
    67    36    62 1
    68    39    63 1
    69    39    64 1
    70    39    65 1
    71    40    66 1
    72    41    67 1
@<TRIPOS>SUBSTRUCTURE
     1 J20         1 TEMP              0 ****  ****    0 ROOT
