@<TRIPOS>MOLECULE
molecule
   66    66     1     0     0
SMALL
bcc


@<TRIPOS>ATOM
      1 C1           1.4650     0.0000     0.0000 c3         1 J21       0.023700
      2 C2           1.9750     0.0000     1.4420 c3         1 J21      -0.058400
      3 C3           1.5710     1.3070     2.1260 c3         1 J21      -0.184400
      4 C4           2.0740     1.3070     3.5470 c          1 J21       0.892600
      5 C5          -0.6740     0.4930    -1.0580 c          1 J21       0.800100
      6 C6          -2.7540     1.0300    -2.2070 c3         1 J21       0.034700
      7 O1           1.1820    -2.0260    -1.1700 o          1 J21      -0.877300
      8 O2           2.6920     0.3600     3.9680 o          1 J21      -0.888800
      9 O9          -3.4540   -11.0720    -3.7390 o          1 J21      -0.625100
     10 C21         -3.9370   -10.5240    -2.7710 c          1 J21       0.663100
     11 C22         -3.1640   -10.4610    -1.4780 c3         1 J21      -0.170100
     12 N3          -5.1640    -9.9720    -2.8500 ns         1 J21      -0.581900
     13 C20         -5.9150   -10.0330    -4.1060 c3         1 J21       0.121000
     14 C19         -7.2660    -9.3370    -3.9270 c3         1 J21       0.111400
     15 C18         -8.1590    -7.1780    -3.4970 ca         1 J21       0.190100
     16 C17         -9.4210    -7.7490    -3.5530 ca         1 J21      -0.221000
     17 C16        -10.5440    -6.9670    -3.3670 ca         1 J21       0.032100
     18 Br         -12.2620    -7.7540    -3.4460 br         1 J21      -0.120100
     19 C15        -10.4190    -5.6080    -3.1220 ca         1 J21      -0.156000
     20 C14         -9.1720    -5.0250    -3.0620 ca         1 J21      -0.068000
     21 C13         -8.0290    -5.8060    -3.2440 ca         1 J21      -0.146600
     22 C12         -6.6910    -5.1870    -3.1810 c          1 J21       0.655700
     23 O7          -5.6970    -5.8700    -3.3400 o          1 J21      -0.582100
     24 N2          -6.5700    -3.8650    -2.9490 ns         1 J21      -0.573900
     25 C11         -5.2420    -3.2510    -2.8860 c3         1 J21       0.103000
     26 C10         -5.3860    -1.7520    -2.6120 c3         1 J21      -0.102400
     27 C8          -4.1420     0.3880    -2.2730 c3         1 J21      -0.074400
     28 C7          -2.8980     2.5230    -2.0600 c          1 J21       0.884600
     29 O6          -3.5390     3.2310    -3.0020 o          1 J21      -0.856300
     30 O5          -2.4350     3.0810    -1.0930 o          1 J21      -0.856300
     31 N1          -2.0220     0.4930    -1.0570 ns         1 J21      -0.594900
     32 O4          -0.0650     0.9380    -2.0130 o          1 J21      -0.681100
     33 N            0.0000     0.0000     0.0000 ns         1 J21      -0.565900
     34 C            1.9670    -1.2310    -0.7110 c          1 J21       0.893600
     35 O            3.2870    -1.4440    -0.8340 o          1 J21      -0.877300
     36 O3           1.8350     2.3620     4.3420 o          1 J21      -0.888800
     37 H1           1.8270     0.8840    -0.5110 h1         1 J21       0.070700
     38 H2           3.0550    -0.0900     1.4430 hc         1 J21       0.047700
     39 H3           1.5430    -0.8360     1.9780 hc         1 J21       0.047700
     40 H4           2.0040     2.1430     1.5900 hc         1 J21       0.033200
     41 H5           0.4920     1.3970     2.1250 hc         1 J21       0.033200
     42 H6          -2.2100     0.8080    -3.1170 h1         1 J21       0.074700
     43 H7          -3.7410   -10.9270    -0.6890 hc         1 J21       0.063367
     44 H8          -2.9710    -9.4260    -1.2230 hc         1 J21       0.063367
     45 H9          -2.2230   -10.9850    -1.5950 hc         1 J21       0.063367
     46 H10         -5.3530    -9.5360    -4.8870 h1         1 J21       0.064200
     47 H11         -7.7910    -9.7770    -3.0880 h1         1 J21       0.035700
     48 H12         -7.8570    -9.4580    -4.8270 h1         1 J21       0.035700
     49 H13         -9.5260    -8.8100    -3.7460 ha         1 J21       0.143000
     50 H14        -11.3060    -5.0020    -2.9790 ha         1 J21       0.142000
     51 H15         -9.0790    -3.9630    -2.8690 ha         1 J21       0.149000
     52 H16         -4.6690    -3.7100    -2.0900 h1         1 J21       0.063200
     53 H17         -5.9590    -1.2930    -3.4080 hc         1 J21       0.031700
     54 H18         -5.8960    -1.6050    -1.6680 hc         1 J21       0.031700
     55 H19         -3.4240    -1.5690    -1.7510 hc         1 J21       0.056700
     56 H20         -3.4870    -1.2570    -3.4910 hc         1 J21       0.056700
     57 H21         -4.6530     0.5360    -1.3290 hc         1 J21       0.038200
     58 H22         -4.7150     0.8480    -3.0690 hc         1 J21       0.038200
     59 H24         -2.5210     0.1740    -0.2510 hn         1 J21       0.277500
     60 H25         -0.5000    -0.4010     0.7690 hn         1 J21       0.283500
     61 H28         -5.5740    -9.5460    -2.0430 hn         1 J21       0.324500
     62 H29         -6.0760   -11.0690    -4.3800 h1         1 J21       0.064200
     63 H30         -7.3880    -3.3010    -2.8250 hn         1 J21       0.303500
     64 H31         -4.7310    -3.3980    -3.8300 h1         1 J21       0.063200
     65 C9          -3.9980    -1.1100    -2.5470 c3         1 J21      -0.083400
     66 O8          -7.0560    -7.9450    -3.6800 os         1 J21      -0.268900
@<TRIPOS>BOND
     1    30    28 1
     2    29    28 1
     3    28     6 1
     4    23    22 2
     5     6    31 1
     6     6    27 1
     7    31     5 1
     8    25    24 1
     9    25    26 1
    10    22    24 1
    11    22    21 1
    12    65    27 1
    13    65    26 1
    14    20    21 ar
    15    20    19 ar
    16     5    33 1
    17     5    32 2
    18    33     1 1
    19    21    15 ar
    20    19    17 ar
    21     1     2 1
    22     1    34 1
    23    15    66 1
    24    15    16 ar
    25    17    16 ar
    26    17    18 1
    27     2     3 1
    28     3     4 1
    29    66    14 1
    30     8     4 1
    31    34     7 1
    32    34    35 1
    33     4    36 1
    34    11    10 1
    35    12    10 1
    36    12    13 1
    37    14    13 1
    38    10     9 2
    39     1    37 1
    40     2    38 1
    41     2    39 1
    42     3    40 1
    43     3    41 1
    44     6    42 1
    45    11    43 1
    46    11    44 1
    47    11    45 1
    48    13    46 1
    49    14    47 1
    50    14    48 1
    51    16    49 1
    52    19    50 1
    53    20    51 1
    54    25    52 1
    55    26    53 1
    56    26    54 1
    57    65    55 1
    58    65    56 1
    59    27    57 1
    60    27    58 1
    61    31    59 1
    62    33    60 1
    63    12    61 1
    64    13    62 1
    65    24    63 1
    66    25    64 1
@<TRIPOS>SUBSTRUCTURE
     1 J21         1 TEMP              0 ****  ****    0 ROOT
