@<TRIPOS>MOLECULE
J21
   66    66     1     0     0
SMALL
bcc


@<TRIPOS>ATOM
      1 C1           1.4650     0.0000     0.0000 c3         1 J21      -0.085300
      2 C2           1.9750     0.0000     1.4420 c3         1 J21      -0.012400
      3 C3           1.5710     1.3070     2.1260 c3         1 J21      -0.142400
      4 C4           2.0740     1.3070     3.5470 c          1 J21       0.987600
      5 C5          -0.6740     0.4930    -1.0580 c          1 J21       0.595100
      6 C6          -2.7540     1.0300    -2.2070 c3         1 J21      -0.070300
      7 O1           1.1820    -2.0260    -1.1700 o          1 J21      -0.927300
      8 O2           2.6920     0.3600     3.9680 o          1 J21      -0.935800
      9 O9          -3.4540   -11.0720    -3.7390 o          1 J21      -0.665100
     10 C21         -3.9370   -10.5240    -2.7710 c          1 J21       0.577100
     11 C22         -3.1640   -10.4610    -1.4780 c3         1 J21      -0.068100
     12 N3          -5.1640    -9.9720    -2.8500 ns         1 J21      -0.191900
     13 C20         -5.9150   -10.0330    -4.1060 c3         1 J21       0.053000
     14 C19         -7.2660    -9.3370    -3.9270 c3         1 J21       0.173400
     15 C18         -8.1590    -7.1780    -3.4970 ca         1 J21       0.212100
     16 C17         -9.4210    -7.7490    -3.5530 ca         1 J21      -0.225000
     17 C16        -10.5440    -6.9670    -3.3670 ca         1 J21       0.100100
     18 Br         -12.2620    -7.7540    -3.4460 br         1 J21      -0.166100
     19 C15        -10.4190    -5.6080    -3.1220 ca         1 J21      -0.142000
     20 C14         -9.1720    -5.0250    -3.0620 ca         1 J21      -0.038000
     21 C13         -8.0290    -5.8060    -3.2440 ca         1 J21      -0.165600
     22 C12         -6.6910    -5.1870    -3.1810 c          1 J21       0.575700
     23 O7          -5.6970    -5.8700    -3.3400 o          1 J21      -0.633100
     24 N2          -6.5700    -3.8650    -2.9490 ns         1 J21      -0.180900
     25 C11         -5.2420    -3.2510    -2.8860 c3         1 J21       0.038000
     26 C10         -5.3860    -1.7520    -2.6120 c3         1 J21      -0.043400
     27 C8          -4.1420     0.3880    -2.2730 c3         1 J21      -0.023400
     28 C7          -2.8980     2.5230    -2.0600 c          1 J21       0.975600
     29 O6          -3.5390     3.2310    -3.0020 o          1 J21      -0.906300
     30 O5          -2.4350     3.0810    -1.0930 o          1 J21      -0.906300
     31 N1          -2.0220     0.4930    -1.0570 ns         1 J21      -0.211900
     32 O4          -0.0650     0.9380    -2.0130 o          1 J21      -0.729100
     33 N            0.0000     0.0000     0.0000 ns         1 J21      -0.164900
     34 C            1.9670    -1.2310    -0.7110 c          1 J21       0.989600
     35 O            3.2870    -1.4440    -0.8340 o          1 J21      -0.927300
     36 O3           1.8350     2.3620     4.3420 o          1 J21      -0.935800
     37 H1           1.8270     0.8840    -0.5110 h1         1 J21       0.054700
     38 H2           3.0550    -0.0900     1.4430 hc         1 J21       0.024700
     39 H3           1.5430    -0.8360     1.9780 hc         1 J21       0.024700
     40 H4           2.0040     2.1430     1.5900 hc         1 J21       0.010700
     41 H5           0.4920     1.3970     2.1250 hc         1 J21       0.010700
     42 H6          -2.2100     0.8080    -3.1170 h1         1 J21       0.057700
     43 H7          -3.7410   -10.9270    -0.6890 hc         1 J21       0.025033
     44 H8          -2.9710    -9.4260    -1.2230 hc         1 J21       0.025033
     45 H9          -2.2230   -10.9850    -1.5950 hc         1 J21       0.025033
     46 H10         -5.3530    -9.5360    -4.8870 h1         1 J21       0.033200
     47 H11         -7.7910    -9.7770    -3.0880 h1         1 J21       0.001200
     48 H12         -7.8570    -9.4580    -4.8270 h1         1 J21       0.001200
     49 H13         -9.5260    -8.8100    -3.7460 ha         1 J21       0.130000
     50 H14        -11.3060    -5.0020    -2.9790 ha         1 J21       0.117000
     51 H15         -9.0790    -3.9630    -2.8690 ha         1 J21       0.118000
     52 H16         -4.6690    -3.7100    -2.0900 h1         1 J21       0.036700
     53 H17         -5.9590    -1.2930    -3.4080 hc         1 J21       0.005700
     54 H18         -5.8960    -1.6050    -1.6680 hc         1 J21       0.005700
     55 H19         -3.4240    -1.5690    -1.7510 hc         1 J21       0.029700
     56 H20         -3.4870    -1.2570    -3.4910 hc         1 J21       0.029700
     57 H21         -4.6530     0.5360    -1.3290 hc         1 J21       0.013700
     58 H22         -4.7150     0.8480    -3.0690 hc         1 J21       0.013700
     59 H24         -2.5210     0.1740    -0.2510 hn         1 J21       0.139500
     60 H25         -0.5000    -0.4010     0.7690 hn         1 J21       0.142500
     61 H28         -5.5740    -9.5460    -2.0430 hn         1 J21       0.183500
     62 H29         -6.0760   -11.0690    -4.3800 h1         1 J21       0.033200
     63 H30         -7.3880    -3.3010    -2.8250 hn         1 J21       0.169500
     64 H31         -4.7310    -3.3980    -3.8300 h1         1 J21       0.036700
     65 C9          -3.9980    -1.1100    -2.5470 c3         1 J21      -0.037400
     66 O8          -7.0560    -7.9450    -3.6800 os         1 J21      -0.242900
@<TRIPOS>BOND
     1     1     2 1   
     2     1    33 1   
     3     1    34 1   
     4     1    37 1   
     5     2     3 1   
     6     2    38 1   
     7     2    39 1   
     8     3     4 1   
     9     3    40 1   
    10     3    41 1   
    11     4     8 1   
    12     4    36 1   
    13     5    31 1   
    14     5    32 2   
    15     5    33 1   
    16     6    27 1   
    17     6    28 1   
    18     6    31 1   
    19     6    42 1   
    20     7    34 1   
    21     9    10 2   
    22    10    11 1   
    23    10    12 1   
    24    11    43 1   
    25    11    44 1   
    26    11    45 1   
    27    12    13 1   
    28    12    61 1   
    29    13    14 1   
    30    13    46 1   
    31    13    62 1   
    32    14    47 1   
    33    14    48 1   
    34    14    66 1   
    35    15    16 ar  
    36    15    21 ar  
    37    15    66 1   
    38    16    17 ar  
    39    16    49 1   
    40    17    18 1   
    41    17    19 ar  
    42    19    20 ar  
    43    19    50 1   
    44    20    21 ar  
    45    20    51 1   
    46    21    22 1   
    47    22    23 2   
    48    22    24 1   
    49    24    25 1   
    50    24    63 1   
    51    25    26 1   
    52    25    52 1   
    53    25    64 1   
    54    26    53 1   
    55    26    54 1   
    56    26    65 1   
    57    27    57 1   
    58    27    58 1   
    59    27    65 1   
    60    28    29 1   
    61    28    30 1   
    62    31    59 1   
    63    33    60 1   
    64    34    35 1   
    65    55    65 1   
    66    56    65 1   
@<TRIPOS>SUBSTRUCTURE
     1 J21         1 TEMP              0 ****  ****    0 ROOT
