@<TRIPOS>MOLECULE
molecule
   50    52     1     0     0
SMALL
bcc


@<TRIPOS>ATOM
      1 C1           0.0000     0.0000     0.0000 cc         1 J25      -0.040300
      2 C2           1.4520     0.0000     0.0000 cc         1 J25      -0.219600
      3 C3           1.9950     0.0000     1.2550 cd         1 J25       0.104500
      4 S4           0.7720    -0.0020     2.4390 ss         1 J25       0.058200
      5 C5          -0.5070    -0.0040     1.2380 cd         1 J25      -0.136400
      6 C6          -1.9930    -0.0130     1.5490 c3         1 J25       0.196300
      7 N7          -2.7150     0.2490     0.2940 n          1 J25      -0.481800
      8 C8          -2.2660    -0.4550    -0.9180 c3         1 J25       0.124000
      9 C9          -0.8490     0.0090    -1.2620 c3         1 J25      -0.042100
     10 N10          3.3540     0.0020     1.5260 ns         1 J25      -0.435100
     11 C11          3.7870     0.0000     2.8030 c          1 J25       0.649100
     12 C12          5.2650     0.0020     3.0970 c3         1 J25      -0.067100
     13 C13          5.4800     0.0000     4.5880 cc         1 J25      -0.028400
     14 C14          5.5960    -1.0900     5.3480 cd         1 J25      -0.135000
     15 C15          5.7890    -0.8440     6.6960 cd         1 J25      -0.157000
     16 C16          5.8310     0.4470     7.0320 cc         1 J25      -0.062100
     17 S17          5.6250     1.4370     5.5930 ss         1 J25      -0.143800
     18 O18          2.9870    -0.0010     3.7140 o          1 J25      -0.565100
     19 C19          2.2560     0.0010    -1.2240 c          1 J25       0.664700
     20 O20          2.6270    -1.1670    -1.7880 os         1 J25      -0.426900
     21 C21          3.4230    -1.0910    -2.9990 c3         1 J25       0.142400
     22 C22          3.7450    -2.5050    -3.4890 c3         1 J25      -0.095100
     23 O23          2.5900     1.0550    -1.7330 o          1 J25      -0.537000
     24 C24         -3.7540     1.1060     0.2540 c          1 J25       0.760100
     25 O25         -4.1470     1.7380     1.3760 os         1 J25      -0.443900
     26 C26         -5.2730     2.6470     1.2600 c3         1 J25       0.164400
     27 C27         -5.5720     3.2670     2.6270 c3         1 J25      -0.098100
     28 O28         -4.3360     1.3080    -0.7920 o          1 J25      -0.613000
     29 H6          -2.2210     0.7620     2.2710 h1         1 J25       0.066700
     30 H6A         -2.2790    -0.9820     1.9400 h1         1 J25       0.066700
     31 H8          -2.2320    -1.5160    -0.7010 h1         1 J25       0.072700
     32 H8A         -2.9220    -0.1780    -1.7340 h1         1 J25       0.072700
     33 H9          -0.4220    -0.6980    -1.9620 hc         1 J25       0.072200
     34 H9A         -0.9060     1.0290    -1.6240 hc         1 J25       0.072200
     35 HN10         4.0140     0.0170     0.7740 hn         1 J25       0.338500
     36 H12          5.7170     0.8880     2.6680 hc         1 J25       0.076700
     37 H12A         5.7200    -0.8810     2.6650 hc         1 J25       0.076700
     38 H14          5.5430    -2.0920     4.9400 ha         1 J25       0.147000
     39 H15          5.8970    -1.6390     7.4240 ha         1 J25       0.149000
     40 H16          5.9740     0.8270     8.0370 h4         1 J25       0.172000
     41 H21          4.3460    -0.5620    -2.7920 h1         1 J25       0.047700
     42 H21A         2.8680    -0.5620    -3.7640 h1         1 J25       0.047700
     43 H22          4.3690    -2.4480    -4.3730 hc         1 J25       0.047700
     44 H22A         2.8240    -3.0220    -3.7290 hc         1 J25       0.047700
     45 H22B         4.2700    -3.0450    -2.7110 hc         1 J25       0.047700
     46 H26         -5.0330     3.4320     0.5530 h1         1 J25       0.050200
     47 H26A        -6.1430     2.1020     0.9130 h1         1 J25       0.050200
     48 H27         -6.4150     3.9420     2.5420 hc         1 J25       0.047700
     49 H27A        -4.7040     3.8150     2.9730 hc         1 J25       0.047700
     50 H27B        -5.8080     2.4820     3.3360 hc         1 J25       0.047700
@<TRIPOS>BOND
     1     5     1 2
     2     9     1 1
     3     1     2 1
     4     3     2 2
     5     2    19 1
     6     4     3 1
     7     3    10 1
     8     5     4 1
     9     6     5 1
    10     6     7 1
    11     6    29 1
    12     6    30 1
    13    24     7 1
    14     7     8 1
    15     8     9 1
    16     8    31 1
    17     8    32 1
    18     9    33 1
    19     9    34 1
    20    11    10 1
    21    10    35 1
    22    18    11 2
    23    11    12 1
    24    12    13 1
    25    12    36 1
    26    12    37 1
    27    13    17 1
    28    13    14 2
    29    14    15 1
    30    14    38 1
    31    15    16 2
    32    15    39 1
    33    17    16 1
    34    16    40 1
    35    19    20 1
    36    19    23 2
    37    20    21 1
    38    22    21 1
    39    21    41 1
    40    21    42 1
    41    22    43 1
    42    22    44 1
    43    22    45 1
    44    28    24 2
    45    25    24 1
    46    25    26 1
    47    27    26 1
    48    26    46 1
    49    26    47 1
    50    27    48 1
    51    27    49 1
    52    27    50 1
@<TRIPOS>SUBSTRUCTURE
     1 J25         1 TEMP              0 ****  ****    0 ROOT
