@<TRIPOS>MOLECULE
J25
   50    52     1     0     0
SMALL
bcc


@<TRIPOS>ATOM
      1 C1           0.0000     0.0000     0.0000 cc         1 J25      -0.044300
      2 C2           1.4520     0.0000     0.0000 cc         1 J25      -0.225600
      3 C3           1.9950     0.0000     1.2550 cd         1 J25       0.030500
      4 S4           0.7720    -0.0020     2.4390 ss         1 J25      -0.119800
      5 C5          -0.5070    -0.0040     1.2380 cd         1 J25      -0.072400
      6 C6          -1.9930    -0.0130     1.5490 c3         1 J25       0.164300
      7 N7          -2.7150     0.2490     0.2940 n          1 J25      -0.148800
      8 C8          -2.2660    -0.4550    -0.9180 c3         1 J25       0.057000
      9 C9          -0.8490     0.0090    -1.2620 c3         1 J25       0.026900
     10 N10          3.3540     0.0020     1.5260 ns         1 J25       0.026900
     11 C11          3.7870     0.0000     2.8030 c          1 J25       0.534100
     12 C12          5.2650     0.0020     3.0970 c3         1 J25       0.010900
     13 C13          5.4800     0.0000     4.5880 cc         1 J25       0.018600
     14 C14          5.5960    -1.0900     5.3480 cd         1 J25      -0.109000
     15 C15          5.7890    -0.8440     6.6960 cd         1 J25      -0.126000
     16 C16          5.8310     0.4470     7.0320 cc         1 J25       0.016900
     17 S17          5.6250     1.4370     5.5930 ss         1 J25      -0.264800
     18 O18          2.9870    -0.0010     3.7140 o          1 J25      -0.578100
     19 C19          2.2560     0.0010    -1.2240 c          1 J25       0.735700
     20 O20          2.6270    -1.1670    -1.7880 os         1 J25      -0.411900
     21 C21          3.4230    -1.0910    -2.9990 c3         1 J25       0.222400
     22 C22          3.7450    -2.5050    -3.4890 c3         1 J25      -0.002100
     23 O23          2.5900     1.0550    -1.7330 o          1 J25      -0.573000
     24 C24         -3.7540     1.1060     0.2540 c          1 J25       0.706100
     25 O25         -4.1470     1.7380     1.3760 os         1 J25      -0.425900
     26 C26         -5.2730     2.6470     1.2600 c3         1 J25       0.241400
     27 C27         -5.5720     3.2670     2.6270 c3         1 J25      -0.005100
     28 O28         -4.3360     1.3080    -0.7920 o          1 J25      -0.659000
     29 H6          -2.2210     0.7620     2.2710 h1         1 J25       0.035700
     30 H6A         -2.2790    -0.9820     1.9400 h1         1 J25       0.035700
     31 H8          -2.2320    -1.5160    -0.7010 h1         1 J25       0.043700
     32 H8A         -2.9220    -0.1780    -1.7340 h1         1 J25       0.043700
     33 H9          -0.4220    -0.6980    -1.9620 hc         1 J25       0.038700
     34 H9A         -0.9060     1.0290    -1.6240 hc         1 J25       0.038700
     35 HN10         4.0140     0.0170     0.7740 hn         1 J25       0.174500
     36 H12          5.7170     0.8880     2.6680 hc         1 J25       0.038200
     37 H12A         5.7200    -0.8810     2.6650 hc         1 J25       0.038200
     38 H14          5.5430    -2.0920     4.9400 ha         1 J25       0.119000
     39 H15          5.8970    -1.6390     7.4240 ha         1 J25       0.120000
     40 H16          5.9740     0.8270     8.0370 h4         1 J25       0.148000
     41 H21          4.3460    -0.5620    -2.7920 h1         1 J25       0.008700
     42 H21A         2.8680    -0.5620    -3.7640 h1         1 J25       0.008700
     43 H22          4.3690    -2.4480    -4.3730 hc         1 J25       0.011367
     44 H22A         2.8240    -3.0220    -3.7290 hc         1 J25       0.011367
     45 H22B         4.2700    -3.0450    -2.7110 hc         1 J25       0.011367
     46 H26         -5.0330     3.4320     0.5530 h1         1 J25       0.009700
     47 H26A        -6.1430     2.1020     0.9130 h1         1 J25       0.009700
     48 H27         -6.4150     3.9420     2.5420 hc         1 J25       0.010367
     49 H27A        -4.7040     3.8150     2.9730 hc         1 J25       0.010367
     50 H27B        -5.8080     2.4820     3.3360 hc         1 J25       0.010367
@<TRIPOS>BOND
     1     1     2 1   
     2     1     5 2   
     3     1     9 1   
     4     2     3 2   
     5     2    19 1   
     6     3     4 1   
     7     3    10 1   
     8     4     5 1   
     9     5     6 1   
    10     6     7 1   
    11     6    29 1   
    12     6    30 1   
    13     7     8 1   
    14     7    24 1   
    15     8     9 1   
    16     8    31 1   
    17     8    32 1   
    18     9    33 1   
    19     9    34 1   
    20    10    11 1   
    21    10    35 1   
    22    11    12 1   
    23    11    18 2   
    24    12    13 1   
    25    12    36 1   
    26    12    37 1   
    27    13    14 2   
    28    13    17 1   
    29    14    15 1   
    30    14    38 1   
    31    15    16 2   
    32    15    39 1   
    33    16    17 1   
    34    16    40 1   
    35    19    20 1   
    36    19    23 2   
    37    20    21 1   
    38    21    22 1   
    39    21    41 1   
    40    21    42 1   
    41    22    43 1   
    42    22    44 1   
    43    22    45 1   
    44    24    25 1   
    45    24    28 2   
    46    25    26 1   
    47    26    27 1   
    48    26    46 1   
    49    26    47 1   
    50    27    48 1   
    51    27    49 1   
    52    27    50 1   
@<TRIPOS>SUBSTRUCTURE
     1 J25         1 TEMP              0 ****  ****    0 ROOT
