@<TRIPOS>MOLECULE
J27
   31    32     1     0     0
SMALL
bcc


@<TRIPOS>ATOM
      1 Cl           0.0000     0.0000     0.0000 cl         1 J27       0.058600
      2 C13          1.7360     0.0000     0.0000 ca         1 J27      -0.046600
      3 C12          2.4280     0.0000     1.1970 ca         1 J27      -0.068000
      4 C10          3.8110    -0.0010     1.1970 ca         1 J27      -0.215300
      5 C11          4.5600     0.0000     2.5050 c3         1 J27       0.041100
      6 N            4.8030    -1.3850     2.9300 nz         1 J27       0.072400
      7 C9           4.5090    -0.0010     0.0030 ca         1 J27      -0.069000
      8 C8           3.8290    -0.0010    -1.1980 ca         1 J27      -0.068000
      9 C7           2.4360    -0.0070    -1.2060 cp         1 J27       0.058000
     10 C6           1.6980    -0.0070    -2.4940 cp         1 J27      -0.116000
     11 C1           0.9050     1.0830    -2.8450 ca         1 J27      -0.027300
     12 C            0.7950     2.2650    -1.9170 c3         1 J27       0.033200
     13 C5           1.8030    -1.0960    -3.3590 ca         1 J27      -0.045000
     14 C4           1.1160    -1.0920    -4.5540 ca         1 J27      -0.135000
     15 C3           0.3230    -0.0080    -4.8980 ca         1 J27       0.143900
     16 F           -0.3470    -0.0080    -6.0700 f          1 J27      -0.114900
     17 C2           0.2230     1.0790    -4.0440 ca         1 J27      -0.128000
     18 H1           1.8860     0.0090     2.1350 ha         1 J27       0.118000
     19 H2           3.9730     0.5110     3.2580 hx         1 J27       0.081700
     20 H3           5.5080     0.5100     2.3790 hx         1 J27       0.081700
     21 H4           5.4970    -1.7990     2.3390 hn         1 J27       0.223133
     22 H5           5.1250    -1.3920     3.8780 hn         1 J27       0.223133
     23 H6           3.9530    -1.9090     2.8630 hn         1 J27       0.223133
     24 H7           5.5920     0.0010     0.0110 ha         1 J27       0.110000
     25 H8           4.3780    -0.0040    -2.1320 ha         1 J27       0.135000
     26 H9           0.5710     3.1560    -2.4920 hc         1 J27       0.019700
     27 H10          0.0020     2.0890    -1.2000 hc         1 J27       0.019700
     28 H11          1.7330     2.4020    -1.3930 hc         1 J27       0.019700
     29 H12          2.4220    -1.9430    -3.0910 ha         1 J27       0.106000
     30 H13          1.1970    -1.9370    -5.2270 ha         1 J27       0.130000
     31 H14         -0.3960     1.9250    -4.3170 ha         1 J27       0.134000
@<TRIPOS>BOND
     1     1     2 1   
     2     2     3 ar  
     3     2     9 ar  
     4     3     4 ar  
     5     3    18 1   
     6     4     5 1   
     7     4     7 ar  
     8     5     6 1   
     9     5    19 1   
    10     5    20 1   
    11     6    21 1   
    12     6    22 1   
    13     6    23 1   
    14     7     8 ar  
    15     7    24 1   
    16     8     9 ar  
    17     8    25 1   
    18     9    10 1   
    19    10    11 ar  
    20    10    13 ar  
    21    11    12 1   
    22    11    17 ar  
    23    12    26 1   
    24    12    27 1   
    25    12    28 1   
    26    13    14 ar  
    27    13    29 1   
    28    14    15 ar  
    29    14    30 1   
    30    15    16 1   
    31    15    17 ar  
    32    17    31 1   
@<TRIPOS>SUBSTRUCTURE
     1 J27         1 TEMP              0 ****  ****    0 ROOT
