@<TRIPOS>MOLECULE
molecule
   39    40     1     0     0
SMALL
bcc


@<TRIPOS>ATOM
      1 S            0.0000     0.0000     0.0000 s6         1 J28       1.325100
      2 NB          -2.3460    -2.9400    -4.5330 ne         1 J28      -0.210400
      3 CG          -2.4680    -3.1020    -5.9700 ca         1 J28       0.033400
      4 CH          -1.1400    -2.8920    -2.5610 ca         1 J28       0.057400
      5 CK          -0.7270    -2.6270     0.1650 ca         1 J28       0.017700
      6 CN          -0.4770    -2.4890     1.6440 c3         1 J28      -0.055800
      7 OT           1.5210     0.0000     0.0000 o          1 J28      -0.708867
      8 CZ          -2.7000    -3.4100    -8.7140 ca         1 J28       0.127100
      9 OC1         -0.4020     0.0000     1.3640 o          1 J28      -0.708867
     10 OC2         -0.4020     0.9990    -0.9280 o          1 J28      -0.708867
     11 CD1         -3.2450    -2.2200    -6.7030 ca         1 J28       0.259600
     12 CD2         -1.8060    -4.1380    -6.6100 ca         1 J28      -0.061000
     13 CE1         -3.3620    -2.3740    -8.0750 ca         1 J28      -0.264000
     14 CE2         -1.9230    -4.2920    -7.9810 ca         1 J28      -0.150300
     15 CI1         -0.7260    -1.6680    -2.0300 ca         1 J28      -0.012000
     16 CI2         -1.3500    -3.9800    -1.7090 ca         1 J28      -0.059300
     17 CJ1         -0.5220    -1.5430    -0.6710 ca         1 J28      -0.257500
     18 CJ2         -1.1420    -3.8410    -0.3530 ca         1 J28      -0.162000
     19 HOH         -2.5710    -2.8180   -10.5480 ho         1 J28       0.387000
     20 HD2         -1.1680    -4.8050    -6.0430 ha         1 J28       0.154000
     21 HE1         -4.0160    -1.7210    -8.6390 ha         1 J28       0.129000
     22 HI1         -0.5280    -0.8320    -2.6890 ha         1 J28       0.160000
     23 HJ2         -1.4540    -4.6230     0.3280 ha         1 J28       0.119000
     24 HNL         -4.1120    -1.2300    -5.0210 hn         1 J28       0.437800
     25 HNLA        -4.5780    -0.5580    -6.5500 hn         1 J28       0.437800
     26 HM          -3.5340    -5.4090    -8.8540 hc         1 J28       0.035700
     27 HMA         -2.3630    -6.3930    -7.9650 hc         1 J28       0.035700
     28 HMB         -1.9470    -5.7480    -9.5580 hc         1 J28       0.035700
     29 HN          -1.2800    -1.9190     2.0950 hc         1 J28       0.055367
     30 HNA          0.4640    -1.9760     1.8050 hc         1 J28       0.055367
     31 HNB         -0.4340    -3.4720     2.0960 hc         1 J28       0.055367
     32 HP          -2.7480    -5.2530    -2.7250 hc         1 J28       0.036700
     33 HPA         -1.0510    -5.6330    -3.0460 hc         1 J28       0.036700
     34 HPB         -1.7780    -6.0730    -1.4950 hc         1 J28       0.036700
     35 CP          -1.7620    -5.3330    -2.2860 c3         1 J28      -0.048800
     36 OH          -1.9740    -3.0520    -9.8570 oh         1 J28      -0.481100
     37 NL          -4.0520    -1.2250    -6.0200 nv         1 J28      -0.927200
     38 CM          -2.4830    -5.5520    -8.6370 c3         1 J28      -0.024800
     39 NA          -1.2620    -3.0550    -3.9980 nf         1 J28      -0.184400
@<TRIPOS>BOND
     1     1     7 1
     2     1     9 1
     3     1    10 1
     4     1    17 1
     5    39     2 2
     6    39     4 1
     7     2     3 1
     8     3    11 ar
     9     3    12 ar
    10     4    15 ar
    11     4    16 ar
    12    36     8 1
    13    36    19 1
    14     5     6 1
    15     5    17 ar
    16     5    18 ar
    17    37    11 1
    18    37    24 1
    19    37    25 1
    20    38    14 1
    21    38    26 1
    22    38    27 1
    23    38    28 1
    24     6    29 1
    25     6    30 1
    26     6    31 1
    27    35    16 1
    28    35    32 1
    29    35    33 1
    30    35    34 1
    31     8    13 ar
    32     8    14 ar
    33    11    13 ar
    34    12    14 ar
    35    12    20 1
    36    13    21 1
    37    15    17 ar
    38    15    22 1
    39    16    18 ar
    40    18    23 1
@<TRIPOS>SUBSTRUCTURE
     1 J28         1 TEMP              0 ****  ****    0 ROOT
