@<TRIPOS>MOLECULE
J28
   39    40     1     0     0
SMALL
bcc


@<TRIPOS>ATOM
      1 S            0.0000     0.0000     0.0000 s6         1 J28       1.033100
      2 NB          -0.3870    -2.6210    -4.6930 ne         1 J28      -0.023400
      3 CG           0.8810    -2.3720    -4.4660 ca         1 J28      -0.180600
      4 CH          -1.1400    -2.8920    -2.5610 ca         1 J28      -0.067600
      5 CK          -0.7270    -2.6270     0.1650 ca         1 J28       0.072700
      6 CN          -0.5090    -2.4570     1.6460 c3         1 J28       0.039200
      7 OT           1.5210     0.0000     0.0000 o          1 J28      -0.659867
      8 CZ           3.7450    -2.2950    -3.6650 ca         1 J28       0.328100
      9 OC1         -0.4020     0.0000     1.3640 o          1 J28      -0.659867
     10 OC2         -0.4020     0.9990    -0.9280 o          1 J28      -0.659867
     11 CD1          1.5460    -3.3780    -3.6690 ca         1 J28       0.176600
     12 CD2          1.6860    -1.3810    -4.8190 ca         1 J28       0.168000
     13 CE1          2.8970    -3.5360    -3.1750 ca         1 J28      -0.268000
     14 CE2          2.8160    -1.3630    -4.4960 ca         1 J28      -0.533300
     15 CI1         -0.7260    -1.6680    -2.0300 ca         1 J28       0.010000
     16 CI2         -1.3500    -3.9800    -1.7090 ca         1 J28      -0.074300
     17 CJ1         -0.5220    -1.5430    -0.6710 ca         1 J28      -0.106500
     18 CJ2         -1.1420    -3.8410    -0.3530 ca         1 J28      -0.187000
     19 HOH          4.6160    -0.8540    -3.2490 ho         1 J28       0.485000
     20 HD2          1.3030    -0.9580    -5.7400 ha         1 J28       0.079000
     21 HE1          3.4590    -4.1230    -2.4580 ha         1 J28       0.147000
     22 HI1         -0.5950    -0.8220    -2.6930 ha         1 J28       0.131000
     23 HJ2         -1.5770    -4.5740     0.3150 ha         1 J28       0.102000
     24 HNL          0.3750    -4.8530    -1.8420 hn         1 J28       0.308800
     25 HNLA         0.2030    -4.9600    -3.5880 hn         1 J28       0.308800
     26 HM           3.8920    -2.9820    -5.7550 hc         1 J28       0.003367
     27 HMA          2.8220    -1.7060    -6.7260 hc         1 J28       0.003367
     28 HMB          4.4940    -1.5280    -5.9170 hc         1 J28       0.003367
     29 HN           0.4130    -1.9750     1.9490 hc         1 J28       0.005033
     30 HNA         -0.1230    -3.3560     2.1090 hc         1 J28       0.005033
     31 HNB         -1.1440    -2.1470     2.4670 hc         1 J28       0.005033
     32 HP          -2.6920    -5.1570    -3.0330 hc         1 J28       0.018367
     33 HPA         -2.1330    -5.7570    -1.3040 hc         1 J28       0.018367
     34 HPB         -1.1860    -6.2260    -2.4950 hc         1 J28       0.018367
     35 CP          -1.9290    -5.4570    -2.3240 c3         1 J28       0.035200
     36 OH           4.6170    -1.7920    -3.3400 oh         1 J28      -0.293100
     37 NL           0.6820    -4.6390    -2.7700 nv         1 J28      -0.704200
     38 CM           3.5110    -1.9840    -5.9370 c3         1 J28       0.075200
     39 NA          -1.2330    -3.0780    -4.0740 nf         1 J28      -0.164400
@<TRIPOS>BOND
     1     1     7 1   
     2     1     9 1   
     3     1    10 1   
     4     1    17 1   
     5     2     3 1   
     6     2    39 2   
     7     3    11 ar  
     8     3    12 ar  
     9     4    15 ar  
    10     4    16 ar  
    11     4    39 1   
    12     5     6 1   
    13     5    17 ar  
    14     5    18 ar  
    15     6    29 1   
    16     6    30 1   
    17     6    31 1   
    18     8    13 ar  
    19     8    14 ar  
    20     8    36 1   
    21    11    13 ar  
    22    11    37 1   
    23    12    14 ar  
    24    12    20 1   
    25    13    21 1   
    26    14    38 1   
    27    15    17 ar  
    28    15    22 1   
    29    16    18 ar  
    30    16    35 1   
    31    18    23 1   
    32    19    36 1   
    33    24    37 1   
    34    25    37 1   
    35    26    38 1   
    36    27    38 1   
    37    28    38 1   
    38    32    35 1   
    39    33    35 1   
    40    34    35 1   
@<TRIPOS>SUBSTRUCTURE
     1 J28         1 TEMP              0 ****  ****    0 ROOT
