@<TRIPOS>MOLECULE
J2D
   48    50     1     0     0
SMALL
bcc


@<TRIPOS>ATOM
      1 CAO          0.0000     0.0000     0.0000 c3         1 J2D      -0.056900
      2 CAM          1.5310     0.0000     0.0000 c3         1 J2D       0.214400
      3 OAS          2.0060     0.0000     1.3470 os         1 J2D      -0.406600
      4 CAN          1.6060     1.1420     2.1070 c3         1 J2D       0.214400
      5 CAP          0.0780     1.1880     2.1910 c3         1 J2D      -0.056900
      6 CBB         -0.5030     1.2220     0.7750 c3         1 J2D      -0.115700
      7 CAU         -2.0080     1.1890     0.8460 c          1 J2D       0.590100
      8 OAB         -2.6200     0.2790     0.3290 o          1 J2D      -0.644100
      9 N           -2.6740     2.1710     1.4840 ns         1 J2D      -0.174900
     10 CA          -4.1360     2.1390     1.5540 c3         1 J2D       0.014000
     11 C           -4.5660     1.2870     2.7210 c          1 J2D       0.561100
     12 O           -3.7310     0.7590     3.4250 o          1 J2D      -0.608100
     13 NAQ         -5.8760     1.1130     2.9820 ns         1 J2D      -0.048400
     14 OAC         -6.2800     0.3120     4.0780 oh         1 J2D      -0.436100
     15 CAZ         -4.6620     3.5400     1.7360 ca         1 J2D      -0.112300
     16 CAJ         -5.8000     3.9420     1.0600 ca         1 J2D      -0.088500
     17 CAH         -6.2850     5.2240     1.2230 ca         1 J2D      -0.084000
     18 CAI         -4.0070     4.4170     2.5810 ca         1 J2D      -0.088500
     19 CAG         -4.4830     5.7010     2.7500 ca         1 J2D      -0.084000
     20 CAX         -5.6260     6.1140     2.0680 cp         1 J2D      -0.036000
     21 CAY         -6.1420     7.4940     2.2460 cp         1 J2D       0.010000
     22 CAK         -5.4830     8.3820     3.0930 ca         1 J2D      -0.127500
     23 CAV         -5.9670     9.6670     3.2560 ca         1 J2D       0.112900
     24 FAD         -5.3280    10.5290     4.0760 f          1 J2D      -0.109400
     25 CBA         -7.1080    10.0700     2.5790 ca         1 J2D       0.052900
     26 FAF         -7.5780    11.3270     2.7420 f          1 J2D      -0.102900
     27 CAW         -7.7670     9.1880     1.7360 ca         1 J2D       0.112900
     28 FAE         -8.8780     9.5870     1.0790 f          1 J2D      -0.109400
     29 CAL         -7.2850     7.9040     1.5630 ca         1 J2D      -0.127500
     30 H1          -0.3610     0.0460    -1.0200 hc         1 J2D       0.035200
     31 H2          -0.3610    -0.9030     0.4770 hc         1 J2D       0.035200
     32 H3           1.8910    -0.8860    -0.5090 h1         1 J2D       0.005950
     33 H4           1.8910     0.8860    -0.5090 h1         1 J2D       0.005950
     34 H5           2.0190     1.0730     3.1060 h1         1 J2D       0.005950
     35 H6           1.9670     2.0410     1.6230 h1         1 J2D       0.005950
     36 H7          -0.2810     0.3070     2.7080 hc         1 J2D       0.035200
     37 H8          -0.2270     2.0790     2.7270 hc         1 J2D       0.035200
     38 H9          -0.1790     2.1250     0.2730 hc         1 J2D       0.032700
     39 H10         -2.1710     2.9420     1.8780 hn         1 J2D       0.184500
     40 H11         -4.5330     1.7210     0.6370 h1         1 J2D       0.068700
     41 H12         -6.5650     1.5180     2.3790 hn         1 J2D       0.156500
     42 H13         -7.1910     0.0880     3.9860 ho         1 J2D       0.392000
     43 H14         -6.3120     3.2500     0.4020 ha         1 J2D       0.114000
     44 H15         -7.1750     5.5390     0.6910 ha         1 J2D       0.116500
     45 H16         -3.1190     4.0960     3.1110 ha         1 J2D       0.114000
     46 H17         -3.9680     6.3880     3.4110 ha         1 J2D       0.116500
     47 H18         -4.5690     8.0800     3.5900 ha         1 J2D       0.135500
     48 H19         -7.8010     7.2150     0.9050 ha         1 J2D       0.135500
@<TRIPOS>BOND
     1     1     2 1   
     2     1     6 1   
     3     1    30 1   
     4     1    31 1   
     5     2     3 1   
     6     2    32 1   
     7     2    33 1   
     8     3     4 1   
     9     4     5 1   
    10     4    34 1   
    11     4    35 1   
    12     5     6 1   
    13     5    36 1   
    14     5    37 1   
    15     6     7 1   
    16     6    38 1   
    17     7     8 2   
    18     7     9 1   
    19     9    10 1   
    20     9    39 1   
    21    10    11 1   
    22    10    15 1   
    23    10    40 1   
    24    11    12 2   
    25    11    13 1   
    26    13    14 1   
    27    13    41 1   
    28    14    42 1   
    29    15    16 ar  
    30    15    18 ar  
    31    16    17 ar  
    32    16    43 1   
    33    17    20 ar  
    34    17    44 1   
    35    18    19 ar  
    36    18    45 1   
    37    19    20 ar  
    38    19    46 1   
    39    20    21 1   
    40    21    22 ar  
    41    21    29 ar  
    42    22    23 ar  
    43    22    47 1   
    44    23    24 1   
    45    23    25 ar  
    46    25    26 1   
    47    25    27 ar  
    48    27    28 1   
    49    27    29 ar  
    50    29    48 1   
@<TRIPOS>SUBSTRUCTURE
     1 J2D         1 TEMP              0 ****  ****    0 ROOT
