@<TRIPOS>MOLECULE
molecule
   48    50     1     0     0
SMALL
bcc


@<TRIPOS>ATOM
      1 CAO          0.0000     0.0000     0.0000 c3         1 J2D      -0.104900
      2 CAM          1.5310     0.0000     0.0000 c3         1 J2D       0.136900
      3 OAS          2.0060     0.0000     1.3470 os         1 J2D      -0.417600
      4 CAN          1.6060     1.1420     2.1070 c3         1 J2D       0.136900
      5 CAP          0.0780     1.1880     2.1910 c3         1 J2D      -0.104900
      6 CBB         -0.5030     1.2220     0.7750 c3         1 J2D      -0.141700
      7 CAU         -2.0080     1.1890     0.8460 c          1 J2D       0.675100
      8 OAB         -2.6200     0.2790     0.3290 o          1 J2D      -0.601100
      9 N           -2.6740     2.1710     1.4840 ns         1 J2D      -0.564900
     10 CA          -4.1360     2.1390     1.5540 c3         1 J2D       0.104000
     11 C           -4.5660     1.2870     2.7210 c          1 J2D       0.661100
     12 O           -3.7310     0.7590     3.4250 o          1 J2D      -0.558100
     13 NAQ         -5.8760     1.1130     2.9820 ns         1 J2D      -0.467400
     14 OAC         -6.2800     0.3120     4.0780 oh         1 J2D      -0.359100
     15 CAZ         -4.6620     3.5400     1.7360 ca         1 J2D      -0.100300
     16 CAJ         -5.8000     3.9420     1.0600 ca         1 J2D      -0.117000
     17 CAH         -6.2850     5.2240     1.2230 ca         1 J2D      -0.107000
     18 CAI         -4.0070     4.4170     2.5810 ca         1 J2D      -0.117000
     19 CAG         -4.4830     5.7010     2.7500 ca         1 J2D      -0.107000
     20 CAX         -5.6260     6.1140     2.0680 cp         1 J2D      -0.034000
     21 CAY         -6.1420     7.4940     2.2460 cp         1 J2D       0.001000
     22 CAK         -5.4830     8.3820     3.0930 ca         1 J2D      -0.155500
     23 CAV         -5.9670     9.6670     3.2560 ca         1 J2D       0.129400
     24 FAD         -5.3280    10.5290     4.0760 f          1 J2D      -0.117400
     25 CBA         -7.1080    10.0700     2.5790 ca         1 J2D       0.060900
     26 FAF         -7.5780    11.3270     2.7420 f          1 J2D      -0.111900
     27 CAW         -7.7670     9.1880     1.7360 ca         1 J2D       0.129400
     28 FAE         -8.8780     9.5870     1.0790 f          1 J2D      -0.117400
     29 CAL         -7.2850     7.9040     1.5630 ca         1 J2D      -0.155500
     30 H1          -0.3610     0.0460    -1.0200 hc         1 J2D       0.064950
     31 H2          -0.3610    -0.9030     0.4770 hc         1 J2D       0.064950
     32 H3           1.8910    -0.8860    -0.5090 h1         1 J2D       0.046950
     33 H4           1.8910     0.8860    -0.5090 h1         1 J2D       0.046950
     34 H5           2.0190     1.0730     3.1060 h1         1 J2D       0.046950
     35 H6           1.9670     2.0410     1.6230 h1         1 J2D       0.046950
     36 H7          -0.2810     0.3070     2.7080 hc         1 J2D       0.064950
     37 H8          -0.2270     2.0790     2.7270 hc         1 J2D       0.064950
     38 H9          -0.1790     2.1250     0.2730 hc         1 J2D       0.060700
     39 H10         -2.1710     2.9420     1.8780 hn         1 J2D       0.324500
     40 H11         -4.5330     1.7210     0.6370 h1         1 J2D       0.100700
     41 H12         -6.5650     1.5180     2.3790 hn         1 J2D       0.319500
     42 H13         -7.1910     0.0880     3.9860 ho         1 J2D       0.398000
     43 H14         -6.3120     3.2500     0.4020 ha         1 J2D       0.139500
     44 H15         -7.1750     5.5390     0.6910 ha         1 J2D       0.140500
     45 H16         -3.1190     4.0960     3.1110 ha         1 J2D       0.139500
     46 H17         -3.9680     6.3880     3.4110 ha         1 J2D       0.140500
     47 H18         -4.5690     8.0800     3.5900 ha         1 J2D       0.159500
     48 H19         -7.8010     7.2150     0.9050 ha         1 J2D       0.159500
@<TRIPOS>BOND
     1    26    25 1
     2    24    23 1
     3    25    23 ar
     4    25    27 ar
     5    28    27 1
     6    23    22 ar
     7    27    29 ar
     8    22    21 ar
     9    29    21 ar
    10    21    20 1
    11    20    17 ar
    12    20    19 ar
    13    17    16 ar
    14    19    18 ar
    15    16    15 ar
    16    18    15 ar
    17    15    10 1
    18    10     9 1
    19    10    11 1
    20     8     7 2
    21     9     7 1
    22     7     6 1
    23    11    12 2
    24    11    13 1
    25     6     1 1
    26     6     5 1
    27     1     2 1
    28    13    14 1
    29     5     4 1
    30     2     3 1
    31     4     3 1
    32     1    30 1
    33     1    31 1
    34     2    32 1
    35     2    33 1
    36     4    34 1
    37     4    35 1
    38     5    36 1
    39     5    37 1
    40     6    38 1
    41     9    39 1
    42    10    40 1
    43    13    41 1
    44    14    42 1
    45    16    43 1
    46    17    44 1
    47    18    45 1
    48    19    46 1
    49    22    47 1
    50    29    48 1
@<TRIPOS>SUBSTRUCTURE
     1 J2D         1 TEMP              0 ****  ****    0 ROOT
