@<TRIPOS>MOLECULE
molecule
   59    63     1     0     0
SMALL
bcc


@<TRIPOS>ATOM
      1 C1           0.0000     0.0000     0.0000 cc         1 J2I      -0.206000
      2 C2           1.3950     0.0000     0.0000 cc         1 J2I      -0.153000
      3 C3           3.6940     2.3190    13.4000 ca         1 J2I      -0.244500
      4 C4           3.4540    -0.0710    13.4160 ca         1 J2I      -0.244500
      5 C5           5.6590     0.4160     3.1610 cd         1 J2I      -0.352300
      6 C6          -0.4180    -0.0000     1.2940 cd         1 J2I      -0.100100
      7 C7           3.7660     1.0910    11.3420 ca         1 J2I      -0.183300
      8 C8           3.5050     1.1360    14.0980 ca         1 J2I       0.194100
      9 C9           3.8240     2.2960    12.0230 ca         1 J2I       0.210400
     10 C10          3.5900    -0.0920    12.0380 ca         1 J2I       0.210400
     11 C11          1.7950     0.0000     1.3240 cd         1 J2I      -0.310600
     12 C12          7.0390     0.4390     3.3830 cd         1 J2I       0.346600
     13 C13          5.4530     0.1230     1.8480 cc         1 J2I       0.151300
     14 C14          3.0560     0.0000     1.9630 cd         1 J2I       0.821200
     15 C15          2.0030    -0.0010     4.0310 cc         1 J2I       0.952900
     16 C16          2.5560     1.1860     9.2010 c          1 J2I       0.665100
     17 C17          0.9340     0.1130     6.2680 c3         1 J2I       0.221300
     18 C18          3.4430    -0.1200     6.0490 c3         1 J2I       0.221300
     19 C19          1.1230     1.3010     7.2200 c3         1 J2I       0.084000
     20 C20          3.6340     1.0720     7.0060 c3         1 J2I       0.084000
     21 C22          3.1810    -0.0980    16.1040 c3         1 J2I       0.126700
     22 C23          3.9150     1.0670     9.8420 c3         1 J2I      -0.100100
     23 N24          6.6710    -0.0280     1.2670 na         1 J2I      -0.072600
     24 N25          3.1110    -0.0010     3.2840 nc         1 J2I      -0.873000
     25 N26          0.8040    -0.0100     3.4980 nd         1 J2I      -0.661800
     26 N27          7.6440     0.1760     2.2540 nc         1 J2I      -0.504800
     27 N28          0.6560    -0.0070     2.1030 na         1 J2I       0.272200
     28 N29          2.1240    -0.0030     5.4140 nh         1 J2I      -0.806300
     29 N30          2.4420     1.1860     7.8580 n          1 J2I      -0.494800
     30 N31          4.2170    -0.0000     1.2160 nu         1 J2I      -0.730300
     31 O32          1.5650     1.2810     9.8940 o          1 J2I      -0.598100
     32 O33          3.3720     1.1580    15.4510 os         1 J2I      -0.319900
     33 F34          4.0080     3.4490    11.3420 f          1 J2I      -0.131400
     34 F35          3.5340    -1.2660    11.3730 f          1 J2I      -0.131400
     35 H1          -0.6370     0.0530    -0.8750 ha         1 J2I       0.159000
     36 H2           2.0410     0.0000    -0.8700 ha         1 J2I       0.144000
     37 H3           3.7370     3.2620    13.9330 ha         1 J2I       0.158500
     38 H4           3.3110    -0.9960    13.9610 ha         1 J2I       0.158500
     39 H5           4.8910     0.5960     3.9040 ha         1 J2I       0.195000
     40 H6          -1.4510    -0.0000     1.6200 h4         1 J2I       0.181000
     41 H17          0.8120    -0.7970     6.8440 h1         1 J2I       0.071950
     42 H17A         0.0600     0.2780     5.6510 h1         1 J2I       0.071950
     43 H18          4.2150    -0.1020     5.2890 h1         1 J2I       0.071950
     44 H18A         3.4960    -1.0460     6.6080 h1         1 J2I       0.071950
     45 H19          0.3500     1.2840     7.9790 h1         1 J2I       0.065200
     46 H19A         1.0700     2.2270     6.6600 h1         1 J2I       0.065200
     47 H20          3.7580     1.9820     6.4320 h1         1 J2I       0.065200
     48 H20A         4.5070     0.9040     7.6250 h1         1 J2I       0.065200
     49 H21          7.5120    -0.0930     5.3900 hc         1 J2I       0.049367
     50 H21A         7.3350     1.6450     5.1130 hc         1 J2I       0.049367
     51 H21B         8.7840     0.8020     4.5480 hc         1 J2I       0.049367
     52 H22          3.0890     0.0610    17.1720 h1         1 J2I       0.046033
     53 H22A         2.2800    -0.5670    15.7300 h1         1 J2I       0.046033
     54 H22B         4.0310    -0.7400    15.9070 h1         1 J2I       0.046033
     55 H23          4.3760     0.1340     9.5400 hc         1 J2I       0.074700
     56 H23A         4.5370     1.8960     9.5270 hc         1 J2I       0.074700
     57 HN31         4.1720    -0.1030     0.2210 hn         1 J2I       0.462800
     58 HN24         6.8430    -0.2460     0.3050 hn         1 J2I       0.324700
     59 C21          7.7150     0.7180     4.7010 c3         1 J2I      -0.110400
@<TRIPOS>BOND
     1     2     1 1
     2     1     6 2
     3     1    35 1
     4     2    11 2
     5     2    36 1
     6     9     3 ar
     7     3     8 ar
     8     3    37 1
     9    10     4 ar
    10     8     4 ar
    11     4    38 1
    12    13     5 2
    13    12     5 1
    14     5    39 1
    15     6    27 1
    16     6    40 1
    17    22     7 1
    18     9     7 ar
    19     7    10 ar
    20     8    32 1
    21    33     9 1
    22    10    34 1
    23    11    14 1
    24    11    27 1
    25    26    12 2
    26    12    59 1
    27    23    13 1
    28    30    13 1
    29    30    14 1
    30    14    24 2
    31    24    15 1
    32    25    15 2
    33    15    28 1
    34    29    16 1
    35    16    22 1
    36    16    31 2
    37    28    17 1
    38    19    17 1
    39    17    41 1
    40    17    42 1
    41    20    18 1
    42    28    18 1
    43    18    43 1
    44    18    44 1
    45    19    29 1
    46    19    45 1
    47    19    46 1
    48    20    29 1
    49    20    47 1
    50    20    48 1
    51    59    49 1
    52    59    50 1
    53    59    51 1
    54    32    21 1
    55    21    52 1
    56    21    53 1
    57    21    54 1
    58    22    55 1
    59    22    56 1
    60    23    26 1
    61    27    25 1
    62    30    57 1
    63    23    58 1
@<TRIPOS>SUBSTRUCTURE
     1 J2I         1 TEMP              0 ****  ****    0 ROOT
