@<TRIPOS>MOLECULE
J2I
   59    63     1     0     0
SMALL
bcc


@<TRIPOS>ATOM
      1 C1           0.0000     0.0000     0.0000 cc         1 J2I      -0.163000
      2 C2           1.3950     0.0000     0.0000 cc         1 J2I      -0.131000
      3 C3           3.6940     2.3190    13.4000 ca         1 J2I      -0.220000
      4 C4           3.4540    -0.0710    13.4160 ca         1 J2I      -0.220000
      5 C5           5.6590     0.4160     3.1610 cc         1 J2I      -0.352300
      6 C6          -0.4180    -0.0000     1.2940 cd         1 J2I      -0.308100
      7 C7           3.7660     1.0910    11.3420 ca         1 J2I      -0.172300
      8 C8           3.5050     1.1360    14.0980 ca         1 J2I       0.203100
      9 C9           3.8240     2.2960    12.0230 ca         1 J2I       0.186400
     10 C10          3.5900    -0.0920    12.0380 ca         1 J2I       0.186400
     11 C11          1.7950     0.0000     1.3240 cd         1 J2I      -0.511600
     12 C12          7.0390     0.4390     3.3830 cc         1 J2I       0.373600
     13 C13          5.4530     0.1230     1.8480 cd         1 J2I      -0.177700
     14 C14          3.0560     0.0000     1.9630 cd         1 J2I       0.640200
     15 C15          2.0030    -0.0010     4.0310 cc         1 J2I       0.822900
     16 C16          2.5560     1.1860     9.2010 c          1 J2I       0.592100
     17 C17          0.9340     0.1130     6.2680 c3         1 J2I       0.140800
     18 C18          3.4430    -0.1200     6.0490 c3         1 J2I       0.140800
     19 C19          1.1230     1.3010     7.2200 c3         1 J2I       0.030000
     20 C20          3.6340     1.0720     7.0060 c3         1 J2I       0.030000
     21 C22          3.1810    -0.0980    16.1040 c3         1 J2I       0.243700
     22 C23          3.9150     1.0670     9.8420 c3         1 J2I      -0.034100
     23 N24          6.6710    -0.0280     1.2670 na         1 J2I       0.414400
     24 N25          3.1110    -0.0010     3.2840 nc         1 J2I      -0.797000
     25 N26          0.8040    -0.0100     3.4980 nd         1 J2I      -0.839800
     26 N27          7.6440     0.1760     2.2540 nd         1 J2I      -0.649800
     27 N28          0.6560    -0.0070     2.1030 na         1 J2I       0.825200
     28 N29          2.1240    -0.0030     5.4140 nh         1 J2I      -0.434300
     29 N30          2.4420     1.1860     7.8580 n          1 J2I      -0.160800
     30 N31          4.2170    -0.0000     1.2160 nu         1 J2I      -0.221300
     31 O32          1.5650     1.2810     9.8940 o          1 J2I      -0.636100
     32 O33          3.3720     1.1580    15.4510 os         1 J2I      -0.301900
     33 F34          4.0080     3.4490    11.3420 f          1 J2I      -0.124900
     34 F35          3.5340    -1.2660    11.3730 f          1 J2I      -0.124900
     35 H1          -0.6370     0.0530    -0.8750 ha         1 J2I       0.130000
     36 H2           2.0410     0.0000    -0.8700 ha         1 J2I       0.119000
     37 H3           3.7370     3.2620    13.9330 ha         1 J2I       0.137500
     38 H4           3.3110    -0.9960    13.9610 ha         1 J2I       0.137500
     39 H5           4.8910     0.5960     3.9040 ha         1 J2I       0.187000
     40 H6          -1.4510    -0.0000     1.6200 h4         1 J2I       0.155000
     41 H17          0.8120    -0.7970     6.8440 h1         1 J2I       0.047450
     42 H17A         0.0600     0.2780     5.6510 h1         1 J2I       0.047450
     43 H18          4.2150    -0.1020     5.2890 h1         1 J2I       0.047450
     44 H18A         3.4960    -1.0460     6.6080 h1         1 J2I       0.047450
     45 H19          0.3500     1.2840     7.9790 h1         1 J2I       0.038200
     46 H19A         1.0700     2.2270     6.6600 h1         1 J2I       0.038200
     47 H20          3.7580     1.9820     6.4320 h1         1 J2I       0.038200
     48 H20A         4.5070     0.9040     7.6250 h1         1 J2I       0.038200
     49 H21          7.5120    -0.0930     5.3900 hc         1 J2I       0.010367
     50 H21A         7.3350     1.6450     5.1130 hc         1 J2I       0.010367
     51 H21B         8.7840     0.8020     4.5480 hc         1 J2I       0.010367
     52 H22          3.0890     0.0610    17.1720 h1         1 J2I       0.000367
     53 H22A         2.2800    -0.5670    15.7300 h1         1 J2I       0.000367
     54 H22B         4.0310    -0.7400    15.9070 h1         1 J2I       0.000367
     55 H23          4.3760     0.1340     9.5400 hc         1 J2I       0.042700
     56 H23A         4.5370     1.8960     9.5270 hc         1 J2I       0.042700
     57 HN31         4.1720    -0.1030     0.2210 hn         1 J2I       0.284800
     58 HN24         6.8430    -0.2460     0.3050 hn         1 J2I       0.146700
     59 C21          7.7150     0.7180     4.7010 c3         1 J2I      -0.003400
@<TRIPOS>BOND
     1     1     2 1   
     2     1     6 2   
     3     1    35 1   
     4     2    11 2   
     5     2    36 1   
     6     3     8 ar  
     7     3     9 ar  
     8     3    37 1   
     9     4     8 ar  
    10     4    10 ar  
    11     4    38 1   
    12     5    12 1   
    13     5    13 2   
    14     5    39 1   
    15     6    27 1   
    16     6    40 1   
    17     7     9 ar  
    18     7    10 ar  
    19     7    22 1   
    20     8    32 1   
    21     9    33 1   
    22    10    34 1   
    23    11    14 1   
    24    11    27 1   
    25    12    26 2   
    26    12    59 1   
    27    13    23 1   
    28    13    30 1   
    29    14    24 2   
    30    14    30 1   
    31    15    24 1   
    32    15    25 2   
    33    15    28 1   
    34    16    22 1   
    35    16    29 1   
    36    16    31 2   
    37    17    19 1   
    38    17    28 1   
    39    17    41 1   
    40    17    42 1   
    41    18    20 1   
    42    18    28 1   
    43    18    43 1   
    44    18    44 1   
    45    19    29 1   
    46    19    45 1   
    47    19    46 1   
    48    20    29 1   
    49    20    47 1   
    50    20    48 1   
    51    21    32 1   
    52    21    52 1   
    53    21    53 1   
    54    21    54 1   
    55    22    55 1   
    56    22    56 1   
    57    23    26 1   
    58    23    58 1   
    59    25    27 1   
    60    30    57 1   
    61    49    59 1   
    62    50    59 1   
    63    51    59 1   
@<TRIPOS>SUBSTRUCTURE
     1 J2I         1 TEMP              0 ****  ****    0 ROOT
