@<TRIPOS>MOLECULE
J2M
   43    46     1     0     0
SMALL
bcc


@<TRIPOS>ATOM
      1 N14          0.0000     0.0000     0.0000 ns         1 J2M      -0.212900
      2 C13          1.4570     0.0000     0.0000 c3         1 J2M       0.061000
      3 C16         -1.6810    -3.0440     3.0720 ca         1 J2M      -0.131300
      4 C15         -0.7290    -0.7160     0.8890 c          1 J2M       0.685100
      5 C19         -2.8100    -2.3140     3.4340 ca         1 J2M       0.462200
      6 C21         -4.1370    -4.1970     3.3240 ca         1 J2M       0.561500
      7 C22         -3.0610    -4.9900     2.9500 ca         1 J2M      -0.245300
      8 C23         -1.8100    -4.4160     2.8240 ca         1 J2M      -0.036000
      9 C24          3.1600    -7.0400     7.1550 c          1 J2M       0.540100
     10 C12          2.0540     0.0000     1.4070 c3         1 J2M       0.068900
     11 N1           1.0580    -5.3200     6.9270 nb         1 J2M      -0.558000
     12 C2           2.0390    -5.2690     6.0370 ca         1 J2M       0.374200
     13 C3           1.9820    -4.3890     4.9670 ca         1 J2M      -0.289300
     14 C4           0.8690    -3.5510     4.8410 ca         1 J2M       0.066000
     15 C5          -0.1430    -3.6420     5.8070 ca         1 J2M      -0.245300
     16 C6          -0.0070    -4.5460     6.8380 ca         1 J2M       0.441200
     17 C7           0.7630    -2.5960     3.7210 cc         1 J2M      -0.302300
     18 C8          -0.3640    -2.3780     2.9460 cd         1 J2M       0.010000
     19 C9           0.0160    -1.3600     1.9820 cd         1 J2M      -0.228600
     20 C10          1.3390    -1.0360     2.2380 cc         1 J2M      -0.317600
     21 N11          1.7670    -1.7710     3.2660 na         1 J2M       0.481900
     22 O18         -1.9360    -0.8220     0.7890 o          1 J2M      -0.673500
     23 N20         -3.9840    -2.9050     3.5460 nb         1 J2M      -0.592000
     24 C25          4.2980    -8.0240     7.2390 c3         1 J2M      -0.069100
     25 O26          2.2600    -7.0840     7.9670 o          1 J2M      -0.565100
     26 F27         -5.3600    -4.7550     3.4530 f          1 J2M      -0.226200
     27 H36         -0.4810     0.5500    -0.6840 hn         1 J2M       0.183500
     28 H35          1.7820    -0.9090    -0.4910 h1         1 J2M       0.018200
     29 H34          1.7820     0.9090    -0.4910 h1         1 J2M       0.018200
     30 H38         -2.7240    -1.2510     3.6260 h4         1 J2M      -0.005900
     31 H39         -3.1990    -6.0490     2.7690 ha         1 J2M       0.126000
     32 H40         -0.9520    -5.0120     2.5370 ha         1 J2M       0.114000
     33 H33          3.1080    -0.2430     1.3530 hc         1 J2M       0.022200
     34 H32          1.9230     0.9770     1.8560 hc         1 J2M       0.022200
     35 H28          2.7860    -4.3500     4.2420 ha         1 J2M       0.111000
     36 H29         -1.0210    -3.0110     5.7440 ha         1 J2M       0.129000
     37 H30         -0.7850    -4.6210     7.5880 h4         1 J2M      -0.013900
     38 H31          2.6890    -1.7280     3.6530 hn         1 J2M       0.104700
     39 H37          3.9210    -6.0250     5.5570 hn         1 J2M       0.167500
     40 H41          5.2360    -7.4870     7.3100 hc         1 J2M       0.023367
     41 H42          4.3050    -8.6450     6.3510 hc         1 J2M       0.023367
     42 H43          4.1720    -8.6490     8.1150 hc         1 J2M       0.023367
     43 N17          3.1420    -6.1110     6.1800 ns         1 J2M      -0.125400
@<TRIPOS>BOND
     1     1     2 1   
     2     1     4 1   
     3     1    27 1   
     4     2    10 1   
     5     2    28 1   
     6     2    29 1   
     7     3     5 ar  
     8     3     8 ar  
     9     3    18 1   
    10     4    19 1   
    11     4    22 2   
    12     5    23 ar  
    13     5    30 1   
    14     6     7 ar  
    15     6    23 ar  
    16     6    26 1   
    17     7     8 ar  
    18     7    31 1   
    19     8    32 1   
    20     9    24 1   
    21     9    25 2   
    22     9    43 1   
    23    10    20 1   
    24    10    33 1   
    25    10    34 1   
    26    11    12 ar  
    27    11    16 ar  
    28    12    13 ar  
    29    12    43 1   
    30    13    14 ar  
    31    13    35 1   
    32    14    15 ar  
    33    14    17 1   
    34    15    16 ar  
    35    15    36 1   
    36    16    37 1   
    37    17    18 2   
    38    17    21 1   
    39    18    19 1   
    40    19    20 2   
    41    20    21 1   
    42    21    38 1   
    43    24    40 1   
    44    24    41 1   
    45    24    42 1   
    46    39    43 1   
@<TRIPOS>SUBSTRUCTURE
     1 J2M         1 TEMP              0 ****  ****    0 ROOT
