@<TRIPOS>MOLECULE
molecule
   43    46     1     0     0
SMALL
bcc


@<TRIPOS>ATOM
      1 N14          0.0000     0.0000     0.0000 ns         1 J2M      -0.595900
      2 C13          1.4570     0.0000     0.0000 c3         1 J2M       0.120000
      3 C16         -1.6810    -3.0440     3.0720 ca         1 J2M      -0.152300
      4 C15         -0.7290    -0.7160     0.8890 c          1 J2M       0.750100
      5 C19         -2.8100    -2.3140     3.4340 ca         1 J2M       0.489200
      6 C21         -4.1370    -4.1970     3.3240 ca         1 J2M       0.643500
      7 C22         -3.0610    -4.9900     2.9500 ca         1 J2M      -0.286300
      8 C23         -1.8100    -4.4160     2.8240 ca         1 J2M      -0.054000
      9 C24          3.1600    -7.0400     7.1550 c          1 J2M       0.643100
     10 C12          2.0540     0.0000     1.4070 c3         1 J2M      -0.029100
     11 N1           1.0580    -5.3200     6.9270 nb         1 J2M      -0.680000
     12 C2           2.0390    -5.2690     6.0370 ca         1 J2M       0.560200
     13 C3           1.9820    -4.3890     4.9670 ca         1 J2M      -0.305300
     14 C4           0.8690    -3.5510     4.8410 ca         1 J2M       0.046000
     15 C5          -0.1430    -3.6420     5.8070 ca         1 J2M      -0.268300
     16 C6          -0.0070    -4.5460     6.8380 ca         1 J2M       0.459200
     17 C7           0.7630    -2.5960     3.7210 cc         1 J2M      -0.086300
     18 C8          -0.3640    -2.3780     2.9460 cd         1 J2M      -0.019000
     19 C9           0.0160    -1.3600     1.9820 cd         1 J2M      -0.223600
     20 C10          1.3390    -1.0360     2.2380 cc         1 J2M      -0.083600
     21 N11          1.7670    -1.7710     3.2660 na         1 J2M      -0.120100
     22 O18         -1.9360    -0.8220     0.7890 o          1 J2M      -0.628500
     23 N20         -3.9840    -2.9050     3.5460 nb         1 J2M      -0.726000
     24 C25          4.2980    -8.0240     7.2390 c3         1 J2M      -0.172100
     25 O26          2.2600    -7.0840     7.9670 o          1 J2M      -0.526100
     26 F27         -5.3600    -4.7550     3.4530 f          1 J2M      -0.222200
     27 H36         -0.4810     0.5500    -0.6840 hn         1 J2M       0.327500
     28 H35          1.7820    -0.9090    -0.4910 h1         1 J2M       0.051200
     29 H34          1.7820     0.9090    -0.4910 h1         1 J2M       0.051200
     30 H38         -2.7240    -1.2510     3.6260 h4         1 J2M       0.041100
     31 H39         -3.1990    -6.0490     2.7690 ha         1 J2M       0.151000
     32 H40         -0.9520    -5.0120     2.5370 ha         1 J2M       0.146000
     33 H33          3.1080    -0.2430     1.3530 hc         1 J2M       0.062200
     34 H32          1.9230     0.9770     1.8560 hc         1 J2M       0.062200
     35 H28          2.7860    -4.3500     4.2420 ha         1 J2M       0.131000
     36 H29         -1.0210    -3.0110     5.7440 ha         1 J2M       0.153000
     37 H30         -0.7850    -4.6210     7.5880 h4         1 J2M       0.036100
     38 H31          2.6890    -1.7280     3.6530 hn         1 J2M       0.298700
     39 H37          3.9210    -6.0250     5.5570 hn         1 J2M       0.326500
     40 H41          5.2360    -7.4870     7.3100 hc         1 J2M       0.062367
     41 H42          4.3050    -8.6450     6.3510 hc         1 J2M       0.062367
     42 H43          4.1720    -8.6490     8.1150 hc         1 J2M       0.062367
     43 N17          3.1420    -6.1110     6.1800 ns         1 J2M      -0.559400
@<TRIPOS>BOND
     1    11    16 ar
     2    11    12 ar
     3    24     9 1
     4    43    12 1
     5    43     9 1
     6    16    15 ar
     7    12    13 ar
     8     9    25 2
     9    15    14 ar
    10    13    14 ar
    11     7     8 ar
    12     7     6 ar
    13    14    17 1
    14    26     6 1
    15     8     3 ar
    16     6    23 ar
    17    17    18 2
    18    17    21 1
    19     3     5 ar
    20     3    18 1
    21    23     5 ar
    22    18    19 1
    23    21    20 1
    24    19    20 2
    25    19     4 1
    26    20    10 1
    27     4    22 2
    28     4     1 1
    29    10     2 1
    30     1     2 1
    31     1    27 1
    32     2    28 1
    33     2    29 1
    34     5    30 1
    35     7    31 1
    36     8    32 1
    37    10    33 1
    38    10    34 1
    39    13    35 1
    40    15    36 1
    41    16    37 1
    42    21    38 1
    43    43    39 1
    44    24    40 1
    45    24    41 1
    46    24    42 1
@<TRIPOS>SUBSTRUCTURE
     1 J2M         1 TEMP              0 ****  ****    0 ROOT
