@<TRIPOS>MOLECULE
molecule
   36    37     1     0     0
SMALL
bcc


@<TRIPOS>ATOM
      1 C10          0.0000     0.0000     0.0000 ca         1 J2N      -0.134500
      2 C15         -2.7690    -0.6410     2.1720 c          1 J2N       0.683100
      3 C17         -4.2720    -0.5370     2.2390 c3         1 J2N      -0.215700
      4 C22         -6.2670    -1.0200     3.6400 c3         1 J2N      -0.101400
      5 N01          4.2450     0.0060     0.0200 nz         1 J2N      -0.741600
      6 C04          3.5540    -0.0060     1.2120 ce         1 J2N       0.526800
      7 N05          4.2040    -0.0210     2.3420 n2         1 J2N      -0.735100
      8 C07          2.0750     0.0000     1.2090 ca         1 J2N      -0.275900
      9 C08          1.3780     0.0000     0.0000 ca         1 J2N      -0.075500
     10 C12         -0.6960    -0.0010     1.2040 ca         1 J2N       0.137600
     11 N13         -2.0920     0.0040     1.2010 ns         1 J2N      -0.458100
     12 O16         -2.1710    -1.3050     2.9920 o          1 J2N      -0.582100
     13 C19         -4.7870    -1.3560     3.4240 c3         1 J2N      -0.069400
     14 C25         -6.3740     0.4300     4.1170 c3         1 J2N       0.096000
     15 N28         -5.6240     1.3140     3.2340 ns         1 J2N      -0.554900
     16 C30         -4.6650     0.9030     2.4030 c          1 J2N       0.709500
     17 O31         -4.0800     1.7370     1.7450 o          1 J2N      -0.677500
     18 C32         -0.0040    -0.0080     2.4100 ca         1 J2N      -0.134500
     19 C34          1.3730    -0.0120     2.4160 ca         1 J2N      -0.075500
     20 H1          -0.5410    -0.0000    -0.9380 ha         1 J2N       0.174000
     21 H2          -4.7040    -0.9230     1.3230 hc         1 J2N       0.101700
     22 H3          -6.8040    -1.1350     2.7060 hc         1 J2N       0.064700
     23 H4          -6.6830    -1.6810     4.3900 hc         1 J2N       0.064700
     24 H5           5.2290     0.0090     0.2050 hn         1 J2N       0.472133
     25 H6           4.0020     0.8270    -0.4990 hn         1 J2N       0.472133
     26 H7           3.7030    -0.0300     3.2080 hn         1 J2N       0.482400
     27 H8           1.9200     0.0010    -0.9380 ha         1 J2N       0.124000
     28 H9          -2.5890     0.4530     0.4580 hn         1 J2N       0.361500
     29 H10         -4.6820    -2.4130     3.2080 hc         1 J2N       0.070200
     30 H11         -4.2230    -1.1030     4.3140 hc         1 J2N       0.070200
     31 H12         -5.9750     0.5050     5.1210 h1         1 J2N       0.055200
     32 H13         -7.4160     0.7280     4.1170 h1         1 J2N       0.055200
     33 H14         -5.8410     2.2910     3.2530 hn         1 J2N       0.339500
     34 H15         -0.5500    -0.0130     3.3460 ha         1 J2N       0.174000
     35 H16          1.9110    -0.0170     3.3560 ha         1 J2N       0.124000
     36 H013         4.0020    -0.8040    -0.5150 hn         1 J2N       0.472133
@<TRIPOS>BOND
     1     7     6 2
     2     6     5 1
     3     6     8 1
     4     9     8 ar
     5     9     1 ar
     6     8    19 ar
     7     1    10 ar
     8    19    18 ar
     9    10    18 ar
    10    10    11 1
    11    17    16 2
    12    11     2 1
    13    16    15 1
    14    16     3 1
    15    15    14 1
    16     2     3 1
    17     2    12 2
    18     3    13 1
    19    14     4 1
    20    13     4 1
    21     1    20 1
    22     3    21 1
    23     4    22 1
    24     4    23 1
    25     5    24 1
    26     5    25 1
    27     7    26 1
    28     9    27 1
    29    11    28 1
    30    13    29 1
    31    13    30 1
    32    14    31 1
    33    14    32 1
    34    15    33 1
    35    18    34 1
    36    19    35 1
    37    36     5 1
@<TRIPOS>SUBSTRUCTURE
     1 J2N         1 TEMP              0 ****  ****    0 ROOT
