@<TRIPOS>MOLECULE
J2N
   36    37     1     0     0
SMALL
bcc


@<TRIPOS>ATOM
      1 C10          0.0000     0.0000     0.0000 ca         1 J2N      -0.115500
      2 C15         -2.7690    -0.6410     2.1720 c          1 J2N       0.589100
      3 C17         -4.2720    -0.5370     2.2390 c3         1 J2N      -0.187700
      4 C22         -6.2670    -1.0200     3.6400 c3         1 J2N      -0.039400
      5 N01          4.2450     0.0060     0.0200 nz         1 J2N       0.121400
      6 C04          3.5540    -0.0060     1.2120 ce         1 J2N       0.244800
      7 N05          4.2040    -0.0210     2.3420 n2         1 J2N      -0.475100
      8 C07          2.0750     0.0000     1.2090 ca         1 J2N      -0.239900
      9 C08          1.3780     0.0000     0.0000 ca         1 J2N      -0.031000
     10 C12         -0.6960    -0.0010     1.2040 ca         1 J2N      -0.006400
     11 N13         -2.0920     0.0040     1.2010 ns         1 J2N      -0.013100
     12 O16         -2.1710    -1.3050     2.9920 o          1 J2N      -0.623100
     13 C19         -4.7870    -1.3560     3.4240 c3         1 J2N      -0.016400
     14 C25         -6.3740     0.4300     4.1170 c3         1 J2N       0.035000
     15 N28         -5.6240     1.3140     3.2340 ns         1 J2N      -0.140900
     16 C30         -4.6650     0.9030     2.4030 c          1 J2N       0.619500
     17 O31         -4.0800     1.7370     1.7450 o          1 J2N      -0.731500
     18 C32         -0.0040    -0.0080     2.4100 ca         1 J2N      -0.115500
     19 C34          1.3730    -0.0120     2.4160 ca         1 J2N      -0.031000
     20 H1          -0.5410    -0.0000    -0.9380 ha         1 J2N       0.143000
     21 H2          -4.7040    -0.9230     1.3230 hc         1 J2N       0.065700
     22 H3          -6.8040    -1.1350     2.7060 hc         1 J2N       0.031700
     23 H4          -6.6830    -1.6810     4.3900 hc         1 J2N       0.031700
     24 H5           4.0000     0.8250    -0.5000 hn         1 J2N       0.225133
     25 H6           4.0100    -0.8090    -0.5100 hn         1 J2N       0.225133
     26 H7           5.2050    -0.0250     2.3440 hn         1 J2N       0.333400
     27 H8           1.9200     0.0010    -0.9380 ha         1 J2N       0.103000
     28 H9          -2.5890     0.4530     0.4580 hn         1 J2N       0.205500
     29 H10         -4.2230    -1.1030     4.3140 hc         1 J2N       0.040200
     30 H11         -4.6820    -2.4130     3.2080 hc         1 J2N       0.040200
     31 H12         -7.4160     0.7280     4.1170 h1         1 J2N       0.025200
     32 H13         -5.9750     0.5050     5.1210 h1         1 J2N       0.025200
     33 H14         -5.8410     2.2910     3.2530 hn         1 J2N       0.189500
     34 H15         -0.5500    -0.0130     3.3460 ha         1 J2N       0.143000
     35 H16          1.9110    -0.0170     3.3560 ha         1 J2N       0.103000
     36 H013         5.2290     0.0030     0.2050 hn         1 J2N       0.225133
@<TRIPOS>BOND
     1     1     9 ar  
     2     1    10 ar  
     3     1    20 1   
     4     2     3 1   
     5     2    11 1   
     6     2    12 2   
     7     3    13 1   
     8     3    16 1   
     9     3    21 1   
    10     4    13 1   
    11     4    14 1   
    12     4    22 1   
    13     4    23 1   
    14     5     6 1   
    15     5    24 1   
    16     5    25 1   
    17     5    36 1   
    18     6     7 2   
    19     6     8 1   
    20     7    26 1   
    21     8     9 ar  
    22     8    19 ar  
    23     9    27 1   
    24    10    11 1   
    25    10    18 ar  
    26    11    28 1   
    27    13    29 1   
    28    13    30 1   
    29    14    15 1   
    30    14    31 1   
    31    14    32 1   
    32    15    16 1   
    33    15    33 1   
    34    16    17 2   
    35    18    19 ar  
    36    18    34 1   
    37    19    35 1   
@<TRIPOS>SUBSTRUCTURE
     1 J2N         1 TEMP              0 ****  ****    0 ROOT
