@<TRIPOS>MOLECULE
molecule
   34    35     1     0     0
SMALL
bcc


@<TRIPOS>ATOM
      1 C1           0.0000     0.0000     0.0000 c3         1 J2P       0.090800
      2 C2           1.9580    -0.0000    -1.3850 c3         1 J2P       0.162100
      3 C3           3.4660    -0.0000    -1.3850 ca         1 J2P      -0.195300
      4 C4           4.1530     1.1990    -1.3800 ca         1 J2P      -0.102000
      5 C5           5.5340     1.2060    -1.3750 ca         1 J2P      -0.103000
      6 C6           6.2340     0.0030    -1.3750 cp         1 J2P       0.040000
      7 C7           5.5360    -1.2040    -1.3800 ca         1 J2P       0.031400
      8 C8           4.1550    -1.1990    -1.3850 ca         1 J2P      -0.098000
      9 C9           7.7180     0.0040    -1.3700 cp         1 J2P      -0.091000
     10 C10          8.4150    -0.7710    -0.4450 ca         1 J2P      -0.097500
     11 C11          9.7960    -0.7660    -0.4460 ca         1 J2P      -0.124000
     12 C12         10.4860     0.0060    -1.3610 ca         1 J2P      -0.097000
     13 C13          9.8000     0.7780    -2.2810 ca         1 J2P      -0.124000
     14 C14          8.4190     0.7760    -2.2940 ca         1 J2P      -0.097500
     15 Cl           6.4000    -2.7100    -1.3780 cl         1 J2P      -0.049400
     16 N            1.4690     0.0000     0.0000 ny         1 J2P      -0.735000
     17 C           -0.5100     0.0000     1.4440 c3         1 J2P      -0.123100
     18 H1          -0.3610    -0.8850    -0.5110 hx         1 J2P       0.106200
     19 H2          -0.3610     0.8850    -0.5110 hx         1 J2P       0.106200
     20 H3           1.5970     0.8840    -1.8960 hx         1 J2P       0.108200
     21 H4           1.5970    -0.8850    -1.8950 hx         1 J2P       0.108200
     22 H5           3.6080     2.1350    -1.3800 ha         1 J2P       0.137000
     23 H6           6.0720     2.1470    -1.3710 ha         1 J2P       0.167000
     24 H7           3.6110    -2.1360    -1.3880 ha         1 J2P       0.146000
     25 H8           7.8750    -1.3770     0.2730 ha         1 J2P       0.135000
     26 H9          10.3390    -1.3690     0.2720 ha         1 J2P       0.144500
     27 H10         11.5690     0.0090    -1.3560 ha         1 J2P       0.144000
     28 H11         10.3460     1.3800    -2.9980 ha         1 J2P       0.144500
     29 H12          7.8820     1.3810    -3.0140 ha         1 J2P       0.135000
     30 H13          1.8020     0.8170     0.4720 hn         1 J2P       0.450800
     31 H14          1.8020    -0.8170     0.4720 hn         1 J2P       0.450800
     32 H15         -0.1490    -0.8850     1.9540 hc         1 J2P       0.075700
     33 H16         -1.5930     0.0000     1.4440 hc         1 J2P       0.075700
     34 H17         -0.1490     0.8840     1.9540 hc         1 J2P       0.075700
@<TRIPOS>BOND
     1    13    14 ar
     2    13    12 ar
     3    14     9 ar
     4    12    11 ar
     5     9     6 1
     6     9    10 ar
     7    11    10 ar
     8     5     6 ar
     9     5     4 ar
    10     6     7 ar
    11     4     3 ar
    12     7    15 1
    13     7     8 ar
    14     3     8 ar
    15     3     2 1
    16    16     2 1
    17    16     1 1
    18    17     1 1
    19     1    18 1
    20     1    19 1
    21     2    20 1
    22     2    21 1
    23     4    22 1
    24     5    23 1
    25     8    24 1
    26    10    25 1
    27    11    26 1
    28    12    27 1
    29    13    28 1
    30    14    29 1
    31    16    30 1
    32    16    31 1
    33    17    32 1
    34    17    33 1
    35    17    34 1
@<TRIPOS>SUBSTRUCTURE
     1 J2P         1 TEMP              0 ****  ****    0 ROOT
