@<TRIPOS>MOLECULE
molecule
   40    41     1     0     0
SMALL
bcc


@<TRIPOS>ATOM
      1 C10          0.0000     0.0000     0.0000 ca         1 J2Q      -0.177000
      2 C17          2.0980    -0.0180     3.6980 c          1 J2Q       0.681700
      3 C21          2.0960    -0.1340     6.0700 ca         1 J2Q       0.136600
      4 C22          3.2490    -0.9070     6.1450 ca         1 J2Q      -0.144500
      5 C24          3.9220    -1.0290     7.3420 ca         1 J2Q      -0.060500
      6 C26          3.4430    -0.3750     8.4790 ca         1 J2Q      -0.232900
      7 C01          2.2190     0.0040    -3.5900 c3         1 J2Q      -0.091100
      8 C05          1.2860     0.0020    -2.3760 c3         1 J2Q       0.131400
      9 O08          2.0640     0.0020    -1.1780 os         1 J2Q      -0.314900
     10 C09          1.3840     0.0000     0.0000 ca         1 J2Q       0.113100
     11 C12         -0.7000    -0.0010     1.1950 ca         1 J2Q      -0.100000
     12 C14         -0.0260    -0.0070     2.3970 ca         1 J2Q      -0.136000
     13 C16          1.3730    -0.0120     2.4130 ca         1 J2Q      -0.157600
     14 O18          3.3150    -0.0230     3.7080 o          1 J2Q      -0.559100
     15 N19          1.4140    -0.0180     4.8580 ns         1 J2Q      -0.479100
     16 C27          2.2850     0.4000     8.4010 ca         1 J2Q      -0.060500
     17 C29          1.6170     0.5180     7.2020 ca         1 J2Q      -0.144500
     18 C31          4.1630    -0.5060     9.7650 ce         1 J2Q       0.549800
     19 N32          3.6890     0.1400    10.8870 nz         1 J2Q      -0.802600
     20 N35          5.2430    -1.2290     9.8380 n2         1 J2Q      -0.692100
     21 C37          2.0800     0.0000     1.2050 ca         1 J2Q       0.151100
     22 O38          3.4380     0.0060     1.2090 oh         1 J2Q      -0.483100
     23 H1          -0.5390     0.0040    -0.9400 ha         1 J2Q       0.152000
     24 H2           3.6200    -1.4140     5.2620 ha         1 J2Q       0.175500
     25 H3           4.8210    -1.6310     7.4000 ha         1 J2Q       0.138000
     26 H4           1.6290     0.0030    -4.4980 hc         1 J2Q       0.053700
     27 H5           2.8450    -0.8790    -3.5650 hc         1 J2Q       0.053700
     28 H6           2.8420     0.8900    -3.5650 hc         1 J2Q       0.053700
     29 H7           0.6610     0.8860    -2.4000 h1         1 J2Q       0.037700
     30 H8           0.6620    -0.8830    -2.4020 h1         1 J2Q       0.037700
     31 H9          -1.7830     0.0010     1.1860 ha         1 J2Q       0.143000
     32 H10         -0.5780    -0.0470     3.3280 ha         1 J2Q       0.121000
     33 H11          0.4180     0.0720     4.8510 hn         1 J2Q       0.340500
     34 H12          1.9120     0.9080     9.2820 ha         1 J2Q       0.138000
     35 H13          0.7180     1.1190     7.1400 ha         1 J2Q       0.175500
     36 H14          4.2910    -0.0540    11.6630 hn         1 J2Q       0.463133
     37 H15          3.6680     1.1270    10.7210 hn         1 J2Q       0.463133
     38 H16          5.7300    -1.3180    10.7070 hn         1 J2Q       0.429400
     39 H17          3.7490     0.8790     1.0360 ho         1 J2Q       0.432000
     40 H323         2.7610    -0.1760    11.0870 hn         1 J2Q       0.463133
@<TRIPOS>BOND
     1    20    18 2
     2    18    19 1
     3    18     6 1
     4     5     6 ar
     5     5     4 ar
     6     6    16 ar
     7     4     3 ar
     8    16    17 ar
     9     3    17 ar
    10     3    15 1
    11    15     2 1
    12    22    21 1
    13     2    14 2
    14     2    13 1
    15    21    13 ar
    16    21    10 ar
    17     9     8 1
    18     9    10 1
    19     8     7 1
    20    13    12 ar
    21    10     1 ar
    22    12    11 ar
    23     1    11 ar
    24     1    23 1
    25     4    24 1
    26     5    25 1
    27     7    26 1
    28     7    27 1
    29     7    28 1
    30     8    29 1
    31     8    30 1
    32    11    31 1
    33    12    32 1
    34    15    33 1
    35    16    34 1
    36    17    35 1
    37    19    36 1
    38    19    37 1
    39    20    38 1
    40    22    39 1
    41    40    19 1
@<TRIPOS>SUBSTRUCTURE
     1 J2Q         1 TEMP              0 ****  ****    0 ROOT
