@<TRIPOS>MOLECULE
J2Q
   40    41     1     0     0
SMALL
bcc


@<TRIPOS>ATOM
      1 C10          0.0000     0.0000     0.0000 ca         1 J2Q      -0.158000
      2 C17          2.0980    -0.0180     3.6980 c          1 J2Q       0.601700
      3 C21          2.0960    -0.1340     6.0700 ca         1 J2Q      -0.004400
      4 C22          3.2490    -0.9070     6.1450 ca         1 J2Q      -0.107500
      5 C24          3.9220    -1.0290     7.3420 ca         1 J2Q      -0.042500
      6 C26          3.4430    -0.3750     8.4790 ca         1 J2Q      -0.271900
      7 C01          2.2190     0.0040    -3.5900 c3         1 J2Q       0.002900
      8 C05          1.2860     0.0020    -2.3760 c3         1 J2Q       0.200400
      9 O08          2.0640     0.0020    -1.1780 os         1 J2Q      -0.291900
     10 C09          1.3840     0.0000     0.0000 ca         1 J2Q       0.111100
     11 C12         -0.7000    -0.0010     1.1950 ca         1 J2Q      -0.071000
     12 C14         -0.0260    -0.0070     2.3970 ca         1 J2Q      -0.112000
     13 C16          1.3730    -0.0120     2.4130 ca         1 J2Q      -0.187600
     14 O18          3.3150    -0.0230     3.7080 o          1 J2Q      -0.602100
     15 N19          1.4140    -0.0180     4.8580 ns         1 J2Q      -0.045100
     16 C27          2.2850     0.4000     8.4010 ca         1 J2Q      -0.042500
     17 C29          1.6170     0.5180     7.2020 ca         1 J2Q      -0.107500
     18 C31          4.1630    -0.5060     9.7650 ce         1 J2Q       0.223800
     19 N32          3.6890     0.1400    10.8870 nz         1 J2Q       0.188400
     20 N35          5.2430    -1.2290     9.8380 n2         1 J2Q      -0.508100
     21 C37          2.0800     0.0000     1.2050 ca         1 J2Q       0.173100
     22 O38          3.4380     0.0060     1.2090 oh         1 J2Q      -0.462100
     23 H1          -0.5390    -0.0000    -0.9400 ha         1 J2Q       0.130000
     24 H2           3.6200    -1.4140     5.2620 ha         1 J2Q       0.144000
     25 H3           4.8210    -1.6310     7.4000 ha         1 J2Q       0.095500
     26 H4           1.6500     0.2370    -4.4820 hc         1 J2Q       0.015700
     27 H5           2.9920     0.7490    -3.4500 hc         1 J2Q       0.015700
     28 H6           2.6740    -0.9730    -3.6970 hc         1 J2Q       0.015700
     29 H7           0.6620    -0.8830    -2.4020 h1         1 J2Q       0.001200
     30 H8           0.6600     0.8860    -2.4000 h1         1 J2Q       0.001200
     31 H9          -1.7830     0.0030     1.1860 ha         1 J2Q       0.112000
     32 H10         -0.5780     0.0360     3.3280 ha         1 J2Q       0.097000
     33 H11          0.4200     0.0970     4.8520 hn         1 J2Q       0.190500
     34 H12          1.9120     0.9080     9.2820 ha         1 J2Q       0.095500
     35 H13          0.7180     1.1190     7.1400 ha         1 J2Q       0.144000
     36 H14          2.7640    -0.1830    11.0930 hn         1 J2Q       0.220467
     37 H15          4.2910    -0.0540    11.6630 hn         1 J2Q       0.220467
     38 H16          5.5880    -1.6980     9.0230 hn         1 J2Q       0.382400
     39 H17          3.7560    -0.8640     1.0320 ho         1 J2Q       0.410000
     40 H323         3.6630     1.1260    10.7190 hn         1 J2Q       0.220467
@<TRIPOS>BOND
     1     1    10 ar  
     2     1    11 ar  
     3     1    23 1   
     4     2    13 1   
     5     2    14 2   
     6     2    15 1   
     7     3     4 ar  
     8     3    15 1   
     9     3    17 ar  
    10     4     5 ar  
    11     4    24 1   
    12     5     6 ar  
    13     5    25 1   
    14     6    16 ar  
    15     6    18 1   
    16     7     8 1   
    17     7    26 1   
    18     7    27 1   
    19     7    28 1   
    20     8     9 1   
    21     8    29 1   
    22     8    30 1   
    23     9    10 1   
    24    10    21 ar  
    25    11    12 ar  
    26    11    31 1   
    27    12    13 ar  
    28    12    32 1   
    29    13    21 ar  
    30    15    33 1   
    31    16    17 ar  
    32    16    34 1   
    33    17    35 1   
    34    18    19 1   
    35    18    20 2   
    36    19    36 1   
    37    19    37 1   
    38    19    40 1   
    39    20    38 1   
    40    21    22 1   
    41    22    39 1   
@<TRIPOS>SUBSTRUCTURE
     1 J2Q         1 TEMP              0 ****  ****    0 ROOT
