@<TRIPOS>MOLECULE
molecule
   31    34     1     0     0
SMALL
bcc


@<TRIPOS>ATOM
      1 NAA          0.0000     0.0000     0.0000 nc         1 J2T      -0.127000
      2 CAB          1.3260     0.0000     0.0000 cd         1 J2T      -0.114300
      3 CAC          2.3020     0.0000     1.0120 cd         1 J2T      -0.021000
      4 CAD          3.6170    -0.0000     0.6640 cc         1 J2T      -0.258300
      5 CAE          4.9950     0.9400    -3.2360 ca         1 J2T      -0.121000
      6 CAF          5.3720     1.0520    -4.5580 ca         1 J2T      -0.093000
      7 CAG          6.4620     0.3440    -5.0360 ca         1 J2T      -0.099300
      8 CAH          7.0670     0.2960    -6.4240 c3         1 J2T      -0.033100
      9 CAI          7.9500    -0.9690    -6.4370 c3         1 J2T      -0.080400
     10 NAJ         -0.4430    -0.0010    -1.2070 nc         1 J2T      -0.003000
     11 NAK          0.5320    -0.0010    -2.0530 nd         1 J2T      -0.183400
     12 NAL          1.7190    -0.0010    -1.3110 na         1 J2T       0.329500
     13 NAM          3.0750    -0.0020    -1.6380 nd         1 J2T      -0.508800
     14 CAN          3.9880    -0.0010    -0.6930 cc         1 J2T       0.658200
     15 NAO          5.3360    -0.0010    -1.0380 nu         1 J2T      -0.758300
     16 CAP          5.7130     0.1160    -2.3780 ca         1 J2T       0.133600
     17 CAQ          6.8090    -0.5880    -2.8570 ca         1 J2T      -0.142000
     18 CAR          7.1770    -0.4810    -4.1860 ca         1 J2T      -0.074300
     19 CAS          8.3110    -1.1380    -4.9450 c3         1 J2T      -0.033100
     20 HAC          2.0110     0.0010     2.0560 ha         1 J2T       0.173000
     21 HAD          4.3800     0.0000     1.4330 ha         1 J2T       0.154000
     22 HAF          4.8120     1.6950    -5.2260 ha         1 J2T       0.137000
     23 HAH          7.6730     1.1770    -6.5980 hc         1 J2T       0.054700
     24 HAHA         6.2860     0.2150    -7.1700 hc         1 J2T       0.054700
     25 HAI          7.3880    -1.8240    -6.7940 hc         1 J2T       0.051700
     26 HAIA         8.8410    -0.8090    -7.0310 hc         1 J2T       0.051700
     27 HNAO         6.0350    -0.0530    -0.3240 hn         1 J2T       0.463800
     28 HAQ          7.3710    -1.2320    -2.1910 ha         1 J2T       0.129000
     29 HAS          9.2470    -0.6380    -4.7270 hc         1 J2T       0.053700
     30 HASA         8.3720    -2.1890    -4.6910 hc         1 J2T       0.053700
     31 HAE          4.1910     1.5550    -2.8480 ha         1 J2T       0.151000
@<TRIPOS>BOND
     1     1    10 1
     2     1     2 2
     3     2     3 1
     4     2    12 1
     5     3     4 2
     6     3    20 1
     7     4    14 1
     8     4    21 1
     9    16     5 ar
    10     5     6 ar
    11     5    31 1
    12     7     6 ar
    13     6    22 1
    14    18     7 ar
    15     7     8 1
    16     9     8 1
    17     8    23 1
    18     8    24 1
    19    19     9 1
    20     9    25 1
    21     9    26 1
    22    10    11 2
    23    11    12 1
    24    12    13 1
    25    13    14 2
    26    14    15 1
    27    15    16 1
    28    15    27 1
    29    16    17 ar
    30    17    18 ar
    31    17    28 1
    32    18    19 1
    33    19    29 1
    34    19    30 1
@<TRIPOS>SUBSTRUCTURE
     1 J2T         1 TEMP              0 ****  ****    0 ROOT
