@<TRIPOS>MOLECULE
molecule
   44    47     1     0     0
SMALL
bcc


@<TRIPOS>ATOM
      1 C17          0.0000     0.0000     0.0000 ca         1 J2V       0.476200
      2 C16          1.3930     0.0000     0.0000 ca         1 J2V      -0.182100
      3 C15          0.7080    -2.7750    -3.2320 ca         1 J2V      -0.297300
      4 C19         -0.0600     0.0060     2.3070 ca         1 J2V       0.657600
      5 C20          1.3280     0.0010     2.3880 ca         1 J2V      -0.273300
      6 C21          2.0730     0.0000     1.2240 ca         1 J2V      -0.042000
      7 C23         -1.4440    -5.5900    -4.0380 c          1 J2V       0.644100
      8 C11          1.4050    -3.0210    -0.9440 ca         1 J2V      -0.262300
      9 C12          0.7000    -4.2050    -0.9010 ca         1 J2V       0.458200
     10 C27         -2.2170     0.0180     3.2980 c3         1 J2V       0.137700
     11 C1           3.0200     1.0650    -1.7810 ca         1 J2V       0.432100
     12 C2           3.5080     0.6160    -3.0220 ca         1 J2V      -0.155500
     13 C3           4.3720     1.4390    -3.7420 ca         1 J2V      -0.110000
     14 C4           4.7120     2.6650    -3.2020 ca         1 J2V      -0.235300
     15 C5           4.1920     3.0420    -1.9730 ca         1 J2V       0.401200
     16 N6           3.3770     2.2540    -1.3060 nb         1 J2V      -0.646000
     17 C7           2.1450    -0.0020    -1.2760 cc         1 J2V      -0.177000
     18 C8           2.1600    -1.0040    -2.2230 cd         1 J2V       0.010700
     19 N9           2.9790    -0.6330    -3.2610 na         1 J2V      -0.169400
     20 C10          1.4170    -2.2770    -2.1330 ca         1 J2V       0.018200
     21 N13          0.0330    -4.6380    -1.9550 nb         1 J2V      -0.678000
     22 C14          0.0210    -3.9720    -3.1000 ca         1 J2V       0.560200
     23 N18         -0.6710     0.0060     1.1340 nb         1 J2V      -0.773000
     24 N22         -0.6910    -4.4810    -4.1860 ns         1 J2V      -0.560400
     25 O24         -1.4310    -6.1950    -2.9880 o          1 J2V      -0.525100
     26 C25         -2.3030    -6.0740    -5.1770 c3         1 J2V      -0.172100
     27 O26         -0.7970     0.0130     3.4450 os         1 J2V      -0.443100
     28 H35         -0.5360     0.0000    -0.9410 h4         1 J2V       0.028100
     29 H34          0.6940    -2.2330    -4.1700 ha         1 J2V       0.134000
     30 H36          1.8200     0.0010     3.3530 ha         1 J2V       0.150000
     31 H37          3.1560    -0.0020     1.2580 ha         1 J2V       0.150000
     32 H32          1.9450    -2.6720    -0.0730 ha         1 J2V       0.154000
     33 H33          0.6840    -4.7830     0.0150 h4         1 J2V       0.035100
     34 H42         -2.6810     0.0220     4.2770 h1         1 J2V       0.046033
     35 H44         -2.5280    -0.8670     2.7560 h1         1 J2V       0.046033
     36 H43         -2.5210     0.9020     2.7510 h1         1 J2V       0.046033
     37 H28          4.7670     1.1250    -4.7010 ha         1 J2V       0.133000
     38 H29          5.3820     3.3280    -3.7370 ha         1 J2V       0.140000
     39 H30          4.4620     4.0050    -1.5550 h4         1 J2V       0.025100
     40 H31          3.1610    -1.1870    -4.0750 hn         1 J2V       0.301700
     41 H38         -0.6140    -4.0450    -5.0830 hn         1 J2V       0.327500
     42 H39         -1.6790    -6.2740    -6.0400 hc         1 J2V       0.063033
     43 H40         -3.0320    -5.3130    -5.4280 hc         1 J2V       0.063033
     44 H41         -2.8150    -6.9820    -4.8830 hc         1 J2V       0.063033
@<TRIPOS>BOND
     1    26     7 1
     2    21     9 ar
     3    21    22 ar
     4    24     7 1
     5    24    22 1
     6     9     8 ar
     7     7    25 2
     8    22     3 ar
     9     8    20 ar
    10     3    20 ar
    11     5     6 ar
    12     5     4 ar
    13    20    18 1
    14    27     4 1
    15    27    10 1
    16     6     2 ar
    17     4    23 ar
    18    18    17 2
    19    18    19 1
    20     2    17 1
    21     2     1 ar
    22    23     1 ar
    23    17    11 1
    24    19    12 1
    25    11    12 ar
    26    11    16 ar
    27    12    13 ar
    28    16    15 ar
    29    13    14 ar
    30    15    14 ar
    31     1    28 1
    32     3    29 1
    33     5    30 1
    34     6    31 1
    35     8    32 1
    36     9    33 1
    37    10    34 1
    38    10    35 1
    39    10    36 1
    40    13    37 1
    41    14    38 1
    42    15    39 1
    43    19    40 1
    44    24    41 1
    45    26    42 1
    46    26    43 1
    47    26    44 1
@<TRIPOS>SUBSTRUCTURE
     1 J2V         1 TEMP              0 ****  ****    0 ROOT
