@<TRIPOS>MOLECULE
molecule
   37    38     1     0     0
SMALL
bcc


@<TRIPOS>ATOM
      1 C13          0.0000     0.0000     0.0000 ca         1 J2W      -0.156600
      2 C21         -0.9110    -0.9350    -5.8980 ca         1 J2W      -0.062500
      3 C24         -2.7120     0.3790    -4.9660 ca         1 J2W      -0.062500
      4 C26         -2.0190     0.4820    -3.7800 ca         1 J2W      -0.143500
      5 C28         -2.9030    -0.4410    -7.3100 ce         1 J2W       0.550800
      6 C01          0.1460    -0.0210     4.7890 c3         1 J2W       0.125700
      7 O05         -0.6470    -0.0150     3.6000 os         1 J2W      -0.314900
      8 C06          0.0180    -0.0100     2.4140 ca         1 J2W       0.104100
      9 C07          1.4030    -0.0110     2.3970 ca         1 J2W      -0.173000
     10 C09          2.0870     0.0000     1.1920 ca         1 J2W      -0.102000
     11 C11          1.3980     0.0000     0.0000 ca         1 J2W      -0.131000
     12 C14         -0.7420     0.0000    -1.2740 c          1 J2W       0.686700
     13 O15         -1.9580     0.0010    -1.2700 o          1 J2W      -0.568100
     14 N16         -0.0720    -0.0010    -2.4440 ns         1 J2W      -0.481100
     15 C18         -0.7730    -0.1210    -3.6460 ca         1 J2W       0.134600
     16 C19         -0.2230    -0.8290    -4.7100 ca         1 J2W      -0.143500
     17 C23         -2.1620    -0.3300    -6.0350 ca         1 J2W      -0.231900
     18 N29         -4.1380     0.1550    -7.4430 nz         1 J2W      -0.801600
     19 N32         -2.3890    -1.1050    -8.3070 n2         1 J2W      -0.697100
     20 C34         -0.6920    -0.0040     1.2180 ca         1 J2W       0.152100
     21 O35         -2.0500    -0.0040     1.2300 oh         1 J2W      -0.483100
     22 H1          -0.4820    -1.4860    -6.7260 ha         1 J2W       0.138500
     23 H2          -3.6820     0.8490    -5.0700 ha         1 J2W       0.138500
     24 H3          -2.4460     1.0330    -2.9510 ha         1 J2W       0.178500
     25 H4           0.7710     0.8640     4.8100 h1         1 J2W       0.049367
     26 H5          -0.5030    -0.0260     5.6560 h1         1 J2W       0.049367
     27 H6           0.7720    -0.9050     4.8010 h1         1 J2W       0.049367
     28 H7           1.9540    -0.0110     3.3300 ha         1 J2W       0.152000
     29 H8           3.1700    -0.0000     1.1880 ha         1 J2W       0.145000
     30 H9           1.9390     0.0080    -0.9380 ha         1 J2W       0.123000
     31 H10          0.9240     0.0970    -2.4500 hn         1 J2W       0.343500
     32 H11          0.7480    -1.2980    -4.6030 ha         1 J2W       0.178500
     33 H12         -4.0500     1.1420    -7.3010 hn         1 J2W       0.463800
     34 H13         -4.4950    -0.0180    -8.3620 hn         1 J2W       0.463800
     35 H14         -2.8900    -1.1810    -9.1700 hn         1 J2W       0.429400
     36 H15         -2.3620    -0.8570     1.4820 ho         1 J2W       0.432000
     37 H293        -4.7700    -0.2320    -6.7710 hn         1 J2W       0.463800
@<TRIPOS>BOND
     1    19     5 2
     2     5    18 1
     3     5    17 1
     4     2    17 ar
     5     2    16 ar
     6    17     3 ar
     7    16    15 ar
     8     3     4 ar
     9    15     4 ar
    10    15    14 1
    11    14    12 1
    12    21    20 1
    13    12    13 2
    14    12     1 1
    15    20     1 ar
    16    20     8 ar
    17     7     6 1
    18     7     8 1
    19     1    11 ar
    20     8     9 ar
    21    11    10 ar
    22     9    10 ar
    23     2    22 1
    24     3    23 1
    25     4    24 1
    26     6    25 1
    27     6    26 1
    28     6    27 1
    29     9    28 1
    30    10    29 1
    31    11    30 1
    32    14    31 1
    33    16    32 1
    34    18    33 1
    35    18    34 1
    36    19    35 1
    37    21    36 1
    38    37    18 1
@<TRIPOS>SUBSTRUCTURE
     1 J2W         1 TEMP              0 ****  ****    0 ROOT
