@<TRIPOS>MOLECULE
J2W
   37    38     1     0     0
SMALL
bcc


@<TRIPOS>ATOM
      1 C13          0.0000     0.0000     0.0000 ca         1 J2W      -0.186600
      2 C21         -0.9110    -0.9350    -5.8980 ca         1 J2W      -0.045000
      3 C24         -2.7120     0.3790    -4.9660 ca         1 J2W      -0.045000
      4 C26         -2.0190     0.4820    -3.7800 ca         1 J2W      -0.106500
      5 C28         -2.9030    -0.4410    -7.3100 ce         1 J2W       0.225800
      6 C01          0.1460    -0.0210     4.7890 c3         1 J2W       0.243700
      7 O05         -0.6470    -0.0150     3.6000 os         1 J2W      -0.294900
      8 C06          0.0180    -0.0100     2.4140 ca         1 J2W       0.102100
      9 C07          1.4030    -0.0110     2.3970 ca         1 J2W      -0.154000
     10 C09          2.0870     0.0000     1.1920 ca         1 J2W      -0.073000
     11 C11          1.3980     0.0000     0.0000 ca         1 J2W      -0.108000
     12 C14         -0.7420     0.0000    -1.2740 c          1 J2W       0.605700
     13 O15         -1.9580     0.0010    -1.2700 o          1 J2W      -0.610100
     14 N16         -0.0720    -0.0010    -2.4440 ns         1 J2W      -0.049100
     15 C18         -0.7730    -0.1210    -3.6460 ca         1 J2W      -0.008400
     16 C19         -0.2230    -0.8290    -4.7100 ca         1 J2W      -0.106500
     17 C23         -2.1620    -0.3300    -6.0350 ca         1 J2W      -0.269900
     18 N29         -4.1380     0.1550    -7.4430 nz         1 J2W       0.189400
     19 N32         -2.3890    -1.1050    -8.3070 n2         1 J2W      -0.511100
     20 C34         -0.6920    -0.0040     1.2180 ca         1 J2W       0.175100
     21 O35         -2.0500    -0.0040     1.2300 oh         1 J2W      -0.463100
     22 H1          -0.4820    -1.4860    -6.7260 ha         1 J2W       0.095500
     23 H2          -3.6820     0.8490    -5.0700 ha         1 J2W       0.095500
     24 H3          -2.4460     1.0330    -2.9510 ha         1 J2W       0.149500
     25 H4          -0.5030    -0.0260     5.6560 h1         1 J2W       0.003367
     26 H5           0.7710     0.8640     4.8100 h1         1 J2W       0.003367
     27 H6           0.7720    -0.9050     4.8010 h1         1 J2W       0.003367
     28 H7           1.9540    -0.0110     3.3300 ha         1 J2W       0.130000
     29 H8           3.1700    -0.0000     1.1880 ha         1 J2W       0.112000
     30 H9           1.9390     0.0080    -0.9380 ha         1 J2W       0.098000
     31 H10          0.9240     0.0970    -2.4500 hn         1 J2W       0.192500
     32 H11          0.7480    -1.2980    -4.6030 ha         1 J2W       0.149500
     33 H12         -4.0500     1.1420    -7.3010 hn         1 J2W       0.221133
     34 H13         -4.7680    -0.2240    -6.7640 hn         1 J2W       0.221133
     35 H14         -1.4920    -1.5390    -8.2120 hn         1 J2W       0.380400
     36 H15         -2.3620    -0.8570     1.4830 ho         1 J2W       0.411000
     37 H293        -4.4900    -0.0100    -8.3660 hn         1 J2W       0.221133
@<TRIPOS>BOND
     1     1    11 ar  
     2     1    12 1   
     3     1    20 ar  
     4     2    16 ar  
     5     2    17 ar  
     6     2    22 1   
     7     3     4 ar  
     8     3    17 ar  
     9     3    23 1   
    10     4    15 ar  
    11     4    24 1   
    12     5    17 1   
    13     5    18 1   
    14     5    19 2   
    15     6     7 1   
    16     6    25 1   
    17     6    26 1   
    18     6    27 1   
    19     7     8 1   
    20     8     9 ar  
    21     8    20 ar  
    22     9    10 ar  
    23     9    28 1   
    24    10    11 ar  
    25    10    29 1   
    26    11    30 1   
    27    12    13 2   
    28    12    14 1   
    29    14    15 1   
    30    14    31 1   
    31    15    16 ar  
    32    16    32 1   
    33    18    33 1   
    34    18    34 1   
    35    18    37 1   
    36    19    35 1   
    37    20    21 1   
    38    21    36 1   
@<TRIPOS>SUBSTRUCTURE
     1 J2W         1 TEMP              0 ****  ****    0 ROOT
