@<TRIPOS>MOLECULE
molecule
   44    47     1     0     0
SMALL
bcc


@<TRIPOS>ATOM
      1 C18          0.0000     0.0000     0.0000 ca         1 J2Y       0.325200
      2 C16         -0.0610    -0.0000     2.3090 ca         1 J2Y       0.479100
      3 C15         -4.5750    -0.8480     1.9090 ca         1 J2Y      -0.292300
      4 C19          1.3870     0.0000     0.0000 ca         1 J2Y       0.010800
      5 C20          2.0700     0.0000     1.2150 ca         1 J2Y      -0.124000
      6 C21          1.3330    -0.0000     2.3840 ca         1 J2Y      -0.171300
      7 C23         -6.9920    -1.7130    -0.6620 c          1 J2Y       0.643100
      8 C11         -3.1320     0.8520     1.0110 ca         1 J2Y      -0.214300
      9 C12         -3.8850     0.8230    -0.1430 ca         1 J2Y       0.436200
     10 C27          1.3040    -0.0010    -2.3760 c3         1 J2Y       0.126700
     11 C1          -0.9860     0.0000     4.8420 ca         1 J2Y       0.417100
     12 C2          -2.2150     0.0010     5.5270 ca         1 J2Y      -0.158500
     13 C3          -2.2080    -0.0030     6.9210 ca         1 J2Y      -0.107000
     14 C4          -0.9870    -0.0080     7.5700 ca         1 J2Y      -0.238300
     15 C5           0.1850    -0.0070     6.8300 ca         1 J2Y       0.402200
     16 N6           0.1610    -0.0040     5.5150 nb         1 J2Y      -0.658000
     17 C7          -1.3160    -0.0010     3.4100 cc         1 J2Y      -0.275600
     18 C8          -2.6940     0.0000     3.3250 cd         1 J2Y       0.038700
     19 N9          -3.2250     0.0050     4.5900 na         1 J2Y      -0.171400
     20 C10         -3.4750     0.0010     2.0710 ca         1 J2Y       0.024200
     21 N13         -4.9110     0.0010    -0.2650 nb         1 J2Y      -0.677000
     22 C14         -5.2750    -0.8160     0.7120 ca         1 J2Y       0.548200
     23 N17         -0.6750    -0.0010     1.1310 nb         1 J2Y      -0.681000
     24 N22         -6.3700    -1.6620     0.5320 ns         1 J2Y      -0.559400
     25 O24         -6.6600    -0.9580    -1.5520 o          1 J2Y      -0.531100
     26 C25         -8.1000    -2.7080    -0.8930 c3         1 J2Y      -0.172100
     27 O26          2.0750    -0.0000    -1.1730 os         1 J2Y      -0.324900
     28 H35         -0.5350    -0.0000    -0.9420 h4         1 J2Y       0.024100
     29 H34         -4.8750    -1.5190     2.7050 ha         1 J2Y       0.131000
     30 H36          3.1520    -0.0000     1.2420 ha         1 J2Y       0.155000
     31 H37          1.8310    -0.0000     3.3470 ha         1 J2Y       0.166000
     32 H32         -2.2890     1.5270     1.0990 ha         1 J2Y       0.160000
     33 H33         -3.6240     1.4760    -0.9670 h4         1 J2Y       0.028100
     34 H42          0.6360    -0.8540    -2.3770 h1         1 J2Y       0.043700
     35 H43          1.9680    -0.0620    -3.2300 h1         1 J2Y       0.043700
     36 H44          0.7240     0.9120    -2.4340 h1         1 J2Y       0.043700
     37 H28         -3.1350    -0.0030     7.4810 ha         1 J2Y       0.133000
     38 H29         -0.9460    -0.0110     8.6530 ha         1 J2Y       0.139000
     39 H30          1.1380    -0.0110     7.3440 h4         1 J2Y       0.023100
     40 H31         -4.2030     0.0070     4.8020 hn         1 J2Y       0.303700
     41 H38         -6.6970    -2.2250     1.2910 hn         1 J2Y       0.325500
     42 H40         -8.4790    -2.5990    -1.9020 hc         1 J2Y       0.061367
     43 H39         -7.7180    -3.7120    -0.7560 hc         1 J2Y       0.061367
     44 H41         -8.9000    -2.5270    -0.1850 hc         1 J2Y       0.061367
@<TRIPOS>BOND
     1    21     9 ar
     2    21    22 ar
     3    26     7 1
     4    24    22 1
     5    24     7 1
     6     9     8 ar
     7    22     3 ar
     8     7    25 2
     9     8    20 ar
    10     3    20 ar
    11     5     6 ar
    12     5     4 ar
    13    27    10 1
    14    27     4 1
    15    20    18 1
    16     6     2 ar
    17     4     1 ar
    18     2    17 1
    19     2    23 ar
    20    18    17 2
    21    18    19 1
    22     1    23 ar
    23    17    11 1
    24    19    12 1
    25    11    12 ar
    26    11    16 ar
    27    12    13 ar
    28    16    15 ar
    29    13    14 ar
    30    15    14 ar
    31     1    28 1
    32     3    29 1
    33     5    30 1
    34     6    31 1
    35     8    32 1
    36     9    33 1
    37    10    34 1
    38    10    35 1
    39    10    36 1
    40    13    37 1
    41    14    38 1
    42    15    39 1
    43    19    40 1
    44    24    41 1
    45    26    42 1
    46    26    43 1
    47    26    44 1
@<TRIPOS>SUBSTRUCTURE
     1 J2Y         1 TEMP              0 ****  ****    0 ROOT
