@<TRIPOS>MOLECULE
molecule
   43    46     1     0     0
SMALL
bcc


@<TRIPOS>ATOM
      1 O1           0.0000     0.0000     0.0000 o          1 J2Z      -0.489100
      2 C7           1.2080     0.0000     0.0000 c          1 J2Z       0.586100
      3 C8           2.1260     0.0000     1.2180 c3         1 J2Z       0.039100
      4 O2           1.8340     1.1220     2.0520 oh         1 J2Z      -0.584800
      5 C9           3.5790     0.1020     0.6770 c3         1 J2Z      -0.087400
      6 C10          3.3770     0.7480    -0.6980 c3         1 J2Z      -0.058700
      7 C5           2.1100    -0.0080    -1.1970 c3         1 J2Z      -0.179000
      8 C6           2.4820    -1.4510    -1.5420 c3         1 J2Z      -0.087100
      9 C12          4.4630     0.4770    -1.7210 c3         1 J2Z      -0.061700
     10 C2           4.0160     1.1400    -3.0310 c3         1 J2Z      -0.019400
     11 C3           2.6980     0.5620    -3.5250 c3         1 J2Z      -0.078400
     12 C4           1.6090     0.6820    -2.4470 c3         1 J2Z      -0.055400
     13 C14          5.7970     1.1010    -1.3100 c3         1 J2Z      -0.076400
     14 C15          6.8680     0.6290    -2.2930 c3         1 J2Z      -0.035100
     15 C16          6.4150     0.8020    -3.7190 ca         1 J2Z      -0.062300
     16 C21          5.0990     1.0300    -4.0650 ca         1 J2Z      -0.077300
     17 C17          7.3800     0.7250    -4.7150 ca         1 J2Z      -0.154000
     18 C18          7.0310     0.8670    -6.0460 ca         1 J2Z       0.104100
     19 O3           7.9840     0.7910    -7.0130 oh         1 J2Z      -0.523100
     20 C19          5.7060     1.0880    -6.3900 ca         1 J2Z      -0.153000
     21 C20          4.7490     1.1670    -5.4010 ca         1 J2Z      -0.117000
     22 H8           2.0030    -0.9220     1.7720 h1         1 J2Z       0.053700
     23 HO2          1.5970     0.8210     2.9130 ho         1 J2Z       0.407000
     24 H19          4.0200    -0.8820     0.5770 hc         1 J2Z       0.060700
     25 H29          4.1800     0.7390     1.3150 hc         1 J2Z       0.060700
     26 H10          3.1820     1.8100    -0.6060 hc         1 J2Z       0.075700
     27 H16          1.5790    -2.0350    -1.6730 hc         1 J2Z       0.046033
     28 H26          3.0590    -1.4660    -2.4580 hc         1 J2Z       0.046033
     29 H36          3.0720    -1.8740    -0.7370 hc         1 J2Z       0.046033
     30 H12          4.5800    -0.5900    -1.8660 hc         1 J2Z       0.065700
     31 H2           3.8590     2.1920    -2.8300 hc         1 J2Z       0.059700
     32 H13          2.8390    -0.4830    -3.7720 hc         1 J2Z       0.049200
     33 H23          2.3830     1.1030    -4.4090 hc         1 J2Z       0.049200
     34 H14          1.4190     1.7280    -2.2350 hc         1 J2Z       0.054700
     35 H24          0.7010     0.2020    -2.7900 hc         1 J2Z       0.054700
     36 H114         5.7150     2.1800    -1.3690 hc         1 J2Z       0.049700
     37 H214         6.0550     0.7590    -0.3150 hc         1 J2Z       0.049700
     38 H115         7.7590     1.2260    -2.1420 hc         1 J2Z       0.053700
     39 H215         7.0540    -0.4240    -2.1180 hc         1 J2Z       0.053700
     40 H17          8.4140     0.5420    -4.4470 ha         1 J2Z       0.139000
     41 HO3          8.3310     1.6510    -7.1800 ho         1 J2Z       0.418000
     42 H19A         5.4240     1.2000    -7.4300 ha         1 J2Z       0.140000
     43 H20          3.7140     1.3390    -5.6700 ha         1 J2Z       0.136000
@<TRIPOS>BOND
     1     4     3 1
     2     3     5 1
     3     3     2 1
     4     1     2 2
     5     5     6 1
     6     2     7 1
     7     8     7 1
     8     6     7 1
     9     6     9 1
    10     7    12 1
    11    13     9 1
    12    13    14 1
    13     9    10 1
    14    12    11 1
    15    14    15 1
    16    10    11 1
    17    10    16 1
    18    15    16 ar
    19    15    17 ar
    20    16    21 ar
    21    17    18 ar
    22    21    20 ar
    23    18    20 ar
    24    18    19 1
    25     3    22 1
    26     4    23 1
    27     5    24 1
    28     5    25 1
    29     6    26 1
    30     8    27 1
    31     8    28 1
    32     8    29 1
    33     9    30 1
    34    10    31 1
    35    11    32 1
    36    11    33 1
    37    12    34 1
    38    12    35 1
    39    13    36 1
    40    13    37 1
    41    14    38 1
    42    14    39 1
    43    17    40 1
    44    19    41 1
    45    20    42 1
    46    21    43 1
@<TRIPOS>SUBSTRUCTURE
     1 J2Z         1 TEMP              0 ****  ****    0 ROOT
