@<TRIPOS>MOLECULE
J2Z
   43    46     1     0     0
SMALL
bcc


@<TRIPOS>ATOM
      1 O1          0.0380    0.2240    0.1490 o         1 J2Z     -0.513100
      2 C7          1.2530    0.0710    0.0740 c         1 J2Z      0.547100
      3 C8          2.1960    0.0070    1.2840 c3        1 J2Z      0.041100
      4 O2          1.9410    1.0410    2.2140 oh        1 J2Z     -0.584800
      5 C9          3.6200    0.1940    0.7230 c3        1 J2Z     -0.070400
      6 C10         3.4090    0.6370   -0.7200 c3        1 J2Z     -0.063700
      7 C5          2.1100   -0.0730   -1.1740 c3        1 J2Z     -0.147000
      8 C6          2.2720   -1.5690   -1.4130 c3        1 J2Z     -0.085100
      9 C12         4.5040    0.4310   -1.7410 c3        1 J2Z     -0.047700
     10 C2          4.0570    1.1050   -3.0510 c3        1 J2Z     -0.009400
     11 C3          2.6920    0.6030   -3.5130 c3        1 J2Z     -0.072400
     12 C4          1.6220    0.6190   -2.4320 c3        1 J2Z     -0.057400
     13 C14         5.8230    1.0370   -1.2990 c3        1 J2Z     -0.074400
     14 C15         6.9090    0.7090   -2.3000 c3        1 J2Z     -0.038100
     15 C16         6.4710    0.8110   -3.7220 ca        1 J2Z     -0.037300
     16 C21         5.1210    0.9580   -4.0950 ca        1 J2Z     -0.102300
     17 C17         7.4670    0.7300   -4.7000 ca        1 J2Z     -0.162000
     18 C18         7.1180    0.7950   -6.0550 ca        1 J2Z      0.125100
     19 O3          8.1500    0.7070   -6.9630 oh        1 J2Z     -0.498100
     20 C19         5.7790    0.9420   -6.4390 ca        1 J2Z     -0.215000
     21 C20         4.7990    1.0240   -5.4560 ca        1 J2Z     -0.090000
     22 H8          2.0820   -0.9910    1.7890 h1        1 J2Z      0.059700
     23 HO2         0.9870    1.0440    2.3720 ho        1 J2Z      0.417000
     24 H19         4.1750    0.9660    1.3110 hc        1 J2Z      0.064200
     25 H29         4.1830   -0.7690    0.7780 hc        1 J2Z      0.064200
     26 H10         3.1900    1.7470   -0.6840 hc        1 J2Z      0.060700
     27 H16         1.2680   -2.0320   -1.5750 hc        1 J2Z      0.045700
     28 H26         2.8980   -1.7650   -2.3150 hc        1 J2Z      0.045700
     29 H36         2.7570   -2.0560   -0.5330 hc        1 J2Z      0.045700
     30 H12         4.6580   -0.6690   -1.9200 hc        1 J2Z      0.061700
     31 H2          3.9550    2.2120   -2.8430 hc        1 J2Z      0.057700
     32 H13         2.3280    1.2580   -4.3510 hc        1 J2Z      0.045200
     33 H23         2.8000   -0.4350   -3.9240 hc        1 J2Z      0.045200
     34 H14         0.7000    0.1080   -2.8140 hc        1 J2Z      0.053200
     35 H24         1.3440    1.6780   -2.1880 hc        1 J2Z      0.053200
     36 H114        6.1060    0.6350   -0.2910 hc        1 J2Z      0.046700
     37 H214        5.7140    2.1480   -1.1980 hc        1 J2Z      0.046700
     38 H115        7.7860    1.3910   -2.1320 hc        1 J2Z      0.054200
     39 H215        7.2700   -0.3420   -2.1240 hc        1 J2Z      0.054200
     40 H17         8.5230    0.6160   -4.4180 ha        1 J2Z      0.149000
     41 HO3         7.7700    0.7710   -7.8510 ho        1 J2Z      0.418000
     42 H19A        5.5070    0.9930   -7.5030 ha        1 J2Z      0.133000
     43 H20         3.7520    1.1450   -5.7720 ha        1 J2Z      0.134000
@<TRIPOS>BOND
     1    1    2 2   
     2    2    3 1   
     3    2    7 1   
     4    3    4 1   
     5    3    5 1   
     6    3   22 1   
     7    4   23 1   
     8    5    6 1   
     9    5   24 1   
    10    5   25 1   
    11    6    7 1   
    12    6    9 1   
    13    6   26 1   
    14    7    8 1   
    15    7   12 1   
    16    8   27 1   
    17    8   28 1   
    18    8   29 1   
    19    9   10 1   
    20    9   13 1   
    21    9   30 1   
    22   10   11 1   
    23   10   16 1   
    24   10   31 1   
    25   11   12 1   
    26   11   32 1   
    27   11   33 1   
    28   12   34 1   
    29   12   35 1   
    30   13   14 1   
    31   13   36 1   
    32   13   37 1   
    33   14   15 1   
    34   14   38 1   
    35   14   39 1   
    36   15   16 ar  
    37   15   17 ar  
    38   16   21 ar  
    39   17   18 ar  
    40   17   40 1   
    41   18   19 1   
    42   18   20 ar  
    43   19   41 1   
    44   20   21 ar  
    45   20   42 1   
    46   21   43 1   
@<TRIPOS>SUBSTRUCTURE
     1 J2Z         1 TEMP              0 ****  ****    0 ROOT
