@<TRIPOS>MOLECULE
J30
   47    49     1     0     0
SMALL
bcc


@<TRIPOS>ATOM
      1 SD           0.0000     0.0000     0.0000 sh         1 J30      -0.402900
      2 CE           1.8140     0.0000     0.0000 c3         1 J30       0.101700
      3 CH           3.8530    -0.0010     1.4440 c3         1 J30      -0.101400
      4 CZ           2.3230     0.0000     1.4430 c3         1 J30       0.005600
      5 C12          4.3560    -0.0000     2.8640 c          1 J30       0.588100
      6 O13          3.5660     0.0000     3.7870 o          1 J30      -0.645100
      7 N14          5.6810    -0.0010     3.1110 n          1 J30      -0.158800
      8 C15          6.1910    -0.0010     4.4900 c3         1 J30       0.050000
      9 C16          7.2140    -1.1340     4.6300 c3         1 J30       0.129800
     10 N17          8.2400    -0.9940     3.5880 n3         1 J30      -0.535600
     11 C18          7.6580    -1.1330     2.2470 c3         1 J30       0.129800
     12 C19          6.6530    -0.0070     2.0090 c3         1 J30       0.050000
     13 C40         10.4710    -1.6260     2.8630 ca         1 J30      -0.079300
     14 C41         11.3690    -0.5950     3.1850 ca         1 J30      -0.015000
     15 C42         12.4360    -0.3000     2.2990 ca         1 J30      -0.036000
     16 C43         12.5730    -1.0450     1.1150 ca         1 J30      -0.084000
     17 C44         11.6840    -2.0370     0.8360 ca         1 J30      -0.104000
     18 C45         10.6390    -2.3300     1.7090 ca         1 J30      -0.103000
     19 C46         11.2320     0.1500     4.3690 ca         1 J30      -0.087000
     20 C47         12.1220     1.1410     4.6490 ca         1 J30      -0.099000
     21 C48         13.1700     1.4310     3.7760 ca         1 J30      -0.097000
     22 C49         13.3350     0.7320     2.6210 ca         1 J30      -0.090000
     23 HSD         -0.4430     0.0000    -1.2520 hs         1 J30       0.182800
     24 HE           2.1750    -0.8850    -0.5110 h1         1 J30       0.026200
     25 HEA          2.1750     0.8850    -0.5110 h1         1 J30       0.026200
     26 HH           4.2150     0.8830     0.9330 hc         1 J30       0.029700
     27 HHA          4.2140    -0.8860     0.9340 hc         1 J30       0.029700
     28 HZ           1.9620     0.8850     1.9530 hc         1 J30       0.045700
     29 HZA          1.9620    -0.8840     1.9540 hc         1 J30       0.045700
     30 H15          6.6690     0.9490     4.7000 h1         1 J30       0.035200
     31 H15A         5.3720    -0.1630     5.1800 h1         1 J30       0.035200
     32 H16          6.7140    -2.0880     4.5180 h1         1 J30       0.019700
     33 H16A         7.6820    -1.0780     5.6060 h1         1 J30       0.019700
     34 H17          8.9740    -2.9580     3.5830 h1         1 J30       0.017200
     35 H17A         9.6740    -1.9020     4.8180 h1         1 J30       0.017200
     36 H18          8.4450    -1.0760     1.5050 h1         1 J30       0.019700
     37 H18A         7.1520    -2.0890     2.1710 h1         1 J30       0.019700
     38 H19          7.1740     0.9430     1.9790 h1         1 J30       0.035200
     39 H19A         6.1370    -0.1740     1.0710 h1         1 J30       0.035200
     40 H43         13.3810    -0.8280     0.4260 ha         1 J30       0.106000
     41 H44         11.7960    -2.6120    -0.0760 ha         1 J30       0.102000
     42 H45          9.9460    -3.1250     1.4630 ha         1 J30       0.103000
     43 H46         10.4230    -0.0650     5.0560 ha         1 J30       0.116000
     44 H47         12.0130     1.7130     5.5620 ha         1 J30       0.101000
     45 H48         13.8640     2.2250     4.0230 ha         1 J30       0.101000
     46 H49         14.1540     0.9690     1.9530 ha         1 J30       0.106000
     47 C17          9.3310    -1.9570     3.7910 c3         1 J30       0.208100
@<TRIPOS>BOND
     1     1     2 1   
     2     1    23 1   
     3     2     4 1   
     4     2    24 1   
     5     2    25 1   
     6     3     4 1   
     7     3     5 1   
     8     3    26 1   
     9     3    27 1   
    10     4    28 1   
    11     4    29 1   
    12     5     6 2   
    13     5     7 1   
    14     7     8 1   
    15     7    12 1   
    16     8     9 1   
    17     8    30 1   
    18     8    31 1   
    19     9    10 1   
    20     9    32 1   
    21     9    33 1   
    22    10    11 1   
    23    10    47 1   
    24    11    12 1   
    25    11    36 1   
    26    11    37 1   
    27    12    38 1   
    28    12    39 1   
    29    13    14 ar  
    30    13    18 ar  
    31    13    47 1   
    32    14    15 ar  
    33    14    19 ar  
    34    15    16 ar  
    35    15    22 ar  
    36    16    17 ar  
    37    16    40 1   
    38    17    18 ar  
    39    17    41 1   
    40    18    42 1   
    41    19    20 ar  
    42    19    43 1   
    43    20    21 ar  
    44    20    44 1   
    45    21    22 ar  
    46    21    45 1   
    47    22    46 1   
    48    34    47 1   
    49    35    47 1   
@<TRIPOS>SUBSTRUCTURE
     1 J30         1 TEMP              0 ****  ****    0 ROOT
