@<TRIPOS>MOLECULE
molecule
   47    49     1     0     0
SMALL
bcc


@<TRIPOS>ATOM
      1 SD           0.0000     0.0000     0.0000 sh         1 J30      -0.420900
      2 CE           1.8140     0.0000     0.0000 c3         1 J30       0.038700
      3 CH           3.8530    -0.0010     1.4440 c3         1 J30      -0.155400
      4 CZ           2.3230     0.0000     1.4430 c3         1 J30      -0.051400
      5 C12          4.3560    -0.0000     2.8640 c          1 J30       0.662100
      6 O13          3.5660     0.0000     3.7870 o          1 J30      -0.609100
      7 N14          5.6810    -0.0010     3.1110 n          1 J30      -0.493800
      8 C15          6.1910    -0.0010     4.4900 c3         1 J30       0.108000
      9 C16          7.2140    -1.1340     4.6300 c3         1 J30       0.142800
     10 N17          8.2400    -0.9940     3.5880 n3         1 J30      -0.725600
     11 C18          7.6580    -1.1330     2.2470 c3         1 J30       0.142800
     12 C19          6.6530    -0.0070     2.0090 c3         1 J30       0.108000
     13 C40         10.4710    -1.6260     2.8630 ca         1 J30      -0.070300
     14 C41         11.3690    -0.5950     3.1850 ca         1 J30      -0.019000
     15 C42         12.4360    -0.3000     2.2990 ca         1 J30      -0.036000
     16 C43         12.5730    -1.0450     1.1150 ca         1 J30      -0.113000
     17 C44         11.6840    -2.0370     0.8360 ca         1 J30      -0.129000
     18 C45         10.6390    -2.3300     1.7090 ca         1 J30      -0.129000
     19 C46         11.2320     0.1500     4.3690 ca         1 J30      -0.105000
     20 C47         12.1220     1.1410     4.6490 ca         1 J30      -0.129000
     21 C48         13.1700     1.4310     3.7760 ca         1 J30      -0.123000
     22 C49         13.3350     0.7320     2.6210 ca         1 J30      -0.119000
     23 HSD         -0.4430     0.0000    -1.2520 hs         1 J30       0.214800
     24 HE           2.1750    -0.8850    -0.5110 h1         1 J30       0.052200
     25 HEA          2.1750     0.8850    -0.5110 h1         1 J30       0.052200
     26 HH           4.2150     0.8830     0.9330 hc         1 J30       0.059700
     27 HHA          4.2140    -0.8860     0.9340 hc         1 J30       0.059700
     28 HZ           1.9620     0.8850     1.9530 hc         1 J30       0.074200
     29 HZA          1.9620    -0.8840     1.9540 hc         1 J30       0.074200
     30 H15          6.6690     0.9490     4.7000 h1         1 J30       0.062700
     31 H15A         5.3720    -0.1630     5.1800 h1         1 J30       0.062700
     32 H16          6.7140    -2.0880     4.5180 h1         1 J30       0.044200
     33 H16A         7.6820    -1.0780     5.6060 h1         1 J30       0.044200
     34 H17          8.9740    -2.9580     3.5830 h1         1 J30       0.043700
     35 H17A         9.6740    -1.9020     4.8180 h1         1 J30       0.043700
     36 H18          8.4450    -1.0760     1.5050 h1         1 J30       0.044200
     37 H18A         7.1520    -2.0890     2.1710 h1         1 J30       0.044200
     38 H19          7.1740     0.9430     1.9790 h1         1 J30       0.062700
     39 H19A         6.1370    -0.1740     1.0710 h1         1 J30       0.062700
     40 H43         13.3810    -0.8280     0.4260 ha         1 J30       0.133000
     41 H44         11.7960    -2.6120    -0.0760 ha         1 J30       0.128000
     42 H45          9.9460    -3.1250     1.4630 ha         1 J30       0.126000
     43 H46         10.4230    -0.0650     5.0560 ha         1 J30       0.140000
     44 H47         12.0130     1.7130     5.5620 ha         1 J30       0.129000
     45 H48         13.8640     2.2250     4.0230 ha         1 J30       0.128000
     46 H49         14.1540     0.9690     1.9530 ha         1 J30       0.132000
     47 C17          9.3310    -1.9570     3.7910 c3         1 J30       0.207100
@<TRIPOS>BOND
     1     1     2 1
     2     1    23 1
     3     4     2 1
     4     2    24 1
     5     2    25 1
     6     5     3 1
     7     3     4 1
     8     3    26 1
     9     3    27 1
    10     4    28 1
    11     4    29 1
    12     7     5 1
    13     5     6 2
    14    12     7 1
    15     8     7 1
    16     9     8 1
    17     8    30 1
    18     8    31 1
    19    10     9 1
    20     9    32 1
    21     9    33 1
    22    13    47 1
    23    47    10 1
    24    47    34 1
    25    47    35 1
    26    10    11 1
    27    11    12 1
    28    11    36 1
    29    11    37 1
    30    12    38 1
    31    12    39 1
    32    18    13 ar
    33    14    13 ar
    34    15    14 ar
    35    14    19 ar
    36    16    15 ar
    37    22    15 ar
    38    16    17 ar
    39    16    40 1
    40    17    18 ar
    41    17    41 1
    42    18    42 1
    43    20    19 ar
    44    19    43 1
    45    21    20 ar
    46    20    44 1
    47    22    21 ar
    48    21    45 1
    49    22    46 1
@<TRIPOS>SUBSTRUCTURE
     1 J30         1 TEMP              0 ****  ****    0 ROOT
