@<TRIPOS>MOLECULE
molecule
   53    54     1     0     0
SMALL
bcc


@<TRIPOS>ATOM
      1 O2           0.0000     0.0000     0.0000 o          1 J35      -0.844300
      2 C19          1.3420     0.0000     0.0000 c          1 J35       0.892600
      3 O3           1.9460    -0.0010    -1.0470 o          1 J35      -0.844300
      4 C20          2.0970     0.0000     1.3040 c3         1 J35      -0.172700
      5 C21          3.6000    -0.0000     1.0240 c3         1 J35      -0.053400
      6 C18          3.9900    -1.3080     0.3320 c3         1 J35      -0.086400
      7 C22          5.4950    -1.3070     0.0510 c3         1 J35      -0.090100
      8 C17          1.7270     1.2490     2.1070 c3         1 J35      -0.008100
      9 C15          0.2700     1.1890     2.4880 ca         1 J35      -0.087300
     10 C14         -0.6860     1.7220     1.6450 ca         1 J35       0.028000
     11 C13         -2.0230     1.6690     1.9920 ca         1 J35      -0.233000
     12 C11         -2.4040     1.0780     3.1870 ca         1 J35       0.133100
     13 O4          -3.7180     1.0230     3.5310 os         1 J35      -0.343900
     14 C8          -4.6530     1.5940     2.6140 c3         1 J35       0.131700
     15 C12         -0.1080     0.5950     3.6780 ca         1 J35      -0.083000
     16 C10         -1.4420     0.5420     4.0320 ca         1 J35      -0.184300
     17 C9          -1.8520    -0.1000     5.3320 c3         1 J35       0.177300
     18 N1          -2.2160     0.9400     6.2980 ns         1 J35      -0.557900
     19 C4          -2.6180     0.5980     7.5380 c          1 J35       0.658700
     20 O1          -2.6790    -0.5730     7.8550 o          1 J35      -0.617100
     21 C1          -2.9830     1.6490     8.5120 ca         1 J35      -0.104600
     22 C3          -2.9180     2.9940     8.1490 ca         1 J35      -0.096000
     23 C5          -3.2600     3.9690     9.0630 ca         1 J35      -0.095500
     24 C2          -3.3990     1.2970     9.7980 ca         1 J35      -0.096000
     25 C7          -3.7400     2.2830    10.7010 ca         1 J35      -0.095500
     26 C6          -3.6680     3.6150    10.3380 ca         1 J35      -0.172300
     27 C16         -4.0410     4.6850    11.3310 c3         1 J35       0.671200
     28 F1          -5.4070     4.9650    11.2240 f          1 J35      -0.226300
     29 F3          -3.7550     4.2390    12.6260 f          1 J35      -0.226300
     30 F2          -3.3050     5.8460    11.0650 f          1 J35      -0.226300
     31 H2           1.8350    -0.8850     1.8720 hc         1 J35       0.048700
     32 H3           3.8480     0.8360     0.3820 hc         1 J35       0.022200
     33 H4           4.1410     0.0890     1.9580 hc         1 J35       0.022200
     34 H5           3.4480    -1.3970    -0.6020 hc         1 J35       0.058700
     35 H6           3.7420    -2.1440     0.9740 hc         1 J35       0.058700
     36 H7           5.7540    -0.4300    -0.5290 hc         1 J35       0.016700
     37 H8           5.7590    -2.1990    -0.5050 hc         1 J35       0.016700
     38 H9           6.0370    -1.2930     0.9890 hc         1 J35       0.016700
     39 H10          1.9060     2.1320     1.5050 hc         1 J35       0.026700
     40 H11          2.3330     1.2950     3.0030 hc         1 J35       0.026700
     41 H12         -0.3880     2.1840     0.7120 ha         1 J35       0.158000
     42 H13         -2.7720     2.0870     1.3310 ha         1 J35       0.125000
     43 H14         -4.5770     1.0880     1.6590 h1         1 J35       0.034700
     44 H15         -4.4330     2.6470     2.4820 h1         1 J35       0.034700
     45 H16         -5.6570     1.4810     3.0040 h1         1 J35       0.034700
     46 H17          0.6430     0.1770     4.3370 ha         1 J35       0.123000
     47 H18         -2.7040    -0.7470     5.1620 h1         1 J35       0.056700
     48 H19         -1.0280    -0.6830     5.7230 h1         1 J35       0.056700
     49 H20         -2.1330     1.9060     6.0470 hn         1 J35       0.316500
     50 H21         -2.6000     3.2730     7.1520 ha         1 J35       0.155000
     51 H22         -3.2080     5.0140     8.7840 ha         1 J35       0.144500
     52 H23         -3.4560     0.2540    10.0840 ha         1 J35       0.155000
     53 H24         -4.0610     2.0120    11.7000 ha         1 J35       0.144500
@<TRIPOS>BOND
     1     3     2 1
     2     1     2 1
     3     2     4 1
     4     4     5 1
     5     4     8 1
     6     7     6 1
     7     6     5 1
     8     8     9 1
     9    10     9 ar
    10    10    11 ar
    11     9    15 ar
    12    11    12 ar
    13    15    16 ar
    14    12    16 ar
    15    12    13 1
    16    16    17 1
    17    14    13 1
    18    17    18 1
    19    18    19 1
    20    19    20 2
    21    19    21 1
    22    22    21 ar
    23    22    23 ar
    24    21    24 ar
    25    23    26 ar
    26    30    27 1
    27    24    25 ar
    28    26    25 ar
    29    26    27 1
    30    27    28 1
    31    27    29 1
    32     4    31 1
    33     5    32 1
    34     5    33 1
    35     6    34 1
    36     6    35 1
    37     7    36 1
    38     7    37 1
    39     7    38 1
    40     8    39 1
    41     8    40 1
    42    10    41 1
    43    11    42 1
    44    14    43 1
    45    14    44 1
    46    14    45 1
    47    15    46 1
    48    17    47 1
    49    17    48 1
    50    18    49 1
    51    22    50 1
    52    23    51 1
    53    24    52 1
    54    25    53 1
@<TRIPOS>SUBSTRUCTURE
     1 J35         1 TEMP              0 ****  ****    0 ROOT
