@<TRIPOS>MOLECULE
molecule
   26    27     1     0     0
SMALL
bcc


@<TRIPOS>ATOM
      1 C01          0.0000     0.0000     0.0000 c3         1 J38      -0.063100
      2 C02          1.5300     0.0000     0.0000 c3         1 J38      -0.059600
      3 S03          2.1380     0.0000     1.7130 ss         1 J38      -0.227000
      4 C04          3.8290    -0.4560     1.4950 ca         1 J38       0.007900
      5 C05          4.7940     0.0110     2.3790 ca         1 J38      -0.082000
      6 C06          6.1140    -0.3410     2.2080 ca         1 J38      -0.128000
      7 C07          6.4810    -1.1700     1.1440 ca         1 J38      -0.110600
      8 C08          7.8940    -1.5490     0.9580 c          1 J38       0.686700
      9 O09          8.2130    -2.2700     0.0320 o          1 J38      -0.570100
     10 N10          8.8310    -1.0960     1.8150 ns         1 J38      -0.469400
     11 O11         10.1880    -1.4610     1.6360 oh         1 J38      -0.357100
     12 C12          5.5100    -1.6400     0.2570 ca         1 J38      -0.098000
     13 C13          4.1810    -1.2870     0.4270 ca         1 J38       0.056600
     14 N14          3.2270    -1.7730    -0.4640 ns         1 J38      -0.456100
     15 C15          2.0330    -1.2320    -0.6980 c          1 J38       0.700500
     16 O16          1.3140    -1.7630    -1.5180 o          1 J38      -0.615500
     17 H01         -0.3610    -0.9370     0.4080 hc         1 J38       0.058700
     18 H01A        -0.3610     0.8210     0.6070 hc         1 J38       0.058700
     19 H01B        -0.3610     0.1150    -1.0150 hc         1 J38       0.058700
     20 H02          1.8970     0.8810    -0.5130 h1         1 J38       0.097700
     21 H05          4.5080     0.6530     3.2030 ha         1 J38       0.151000
     22 H06          6.8760     0.0850     2.8500 ha         1 J38       0.128000
     23 H12          5.7970    -2.2830    -0.5670 ha         1 J38       0.168000
     24 HN14         3.4600    -2.6030    -0.9720 hn         1 J38       0.345500
     25 H10          8.5640    -0.5290     2.5950 hn         1 J38       0.322500
     26 H11         10.7270    -0.9690     2.2340 ho         1 J38       0.400000
@<TRIPOS>BOND
     1     2     1 1
     2     1    17 1
     3     1    18 1
     4     1    19 1
     5    15     2 1
     6     2     3 1
     7     2    20 1
     8     4     3 1
     9    13     4 ar
    10     4     5 ar
    11     6     5 ar
    12     5    21 1
    13     7     6 ar
    14     6    22 1
    15    12     7 ar
    16     8     7 1
    17     9     8 2
    18     8    10 1
    19    11    10 1
    20    12    13 ar
    21    12    23 1
    22    14    13 1
    23    14    15 1
    24    14    24 1
    25    16    15 2
    26    10    25 1
    27    11    26 1
@<TRIPOS>SUBSTRUCTURE
     1 J38         1 TEMP              0 ****  ****    0 ROOT
