@<TRIPOS>MOLECULE
molecule
   53    56     1     0     0
SMALL
bcc


@<TRIPOS>ATOM
      1 C4           0.0000     0.0000     0.0000 ca         1 J3A      -0.112500
      2 C14         -6.7160     0.4810     7.2660 c3         1 J3A       0.158300
      3 C5           1.3790     0.0000     0.0000 ca         1 J3A      -0.129500
      4 C6           2.0750     0.0000     1.1960 ca         1 J3A      -0.121000
      5 C11         -6.9820     0.3370     2.4170 ca         1 J3A      -0.461600
      6 C8          -2.8340     0.0050     2.3860 ce         1 J3A      -0.230800
      7 C9          -4.3020     0.1230     2.3980 ca         1 J3A       0.792800
      8 C10         -6.2590     0.3390     3.6080 ca         1 J3A       0.682200
      9 C12         -6.2860     0.2150     1.2170 ca         1 J3A       0.749200
     10 C13         -5.9530     0.4340     5.9410 c3         1 J3A       0.128800
     11 N1          -4.9340     0.2320     3.5610 nb         1 J3A      -0.814000
     12 N2          -4.9610     0.1060     1.2450 nb         1 J3A      -0.813000
     13 C3          -0.6950     0.0000     1.2120 ca         1 J3A      -0.069800
     14 N3          -6.9110     0.4530     4.8260 nh         1 J3A      -0.691300
     15 C1           1.3930     0.0000     2.4000 ca         1 J3A      -0.129500
     16 C2           0.0140    -0.0060     2.4160 ca         1 J3A      -0.112500
     17 N4          -7.5440     1.6940     7.3090 n3         1 J3A      -0.722600
     18 C15         -8.5020     1.7150     6.1950 c3         1 J3A       0.158300
     19 C16         -7.7390     1.6670     4.8690 c3         1 J3A       0.128800
     20 C17         -6.7090     2.9020     7.3060 c3         1 J3A       0.141100
     21 N5          -6.9670     0.2070     0.0080 nu         1 J3A      -0.843600
     22 C18         -6.2740    -0.0360    -1.1840 cd         1 J3A       0.589200
     23 N6          -6.8090    -0.1590    -2.3750 nc         1 J3A      -0.564800
     24 N7          -5.7790    -0.3940    -3.2960 na         1 J3A      -0.042600
     25 C19         -4.6110    -0.4090    -2.6200 cc         1 J3A      -0.072600
     26 C20         -4.8830    -0.1850    -1.3140 cd         1 J3A      -0.348300
     27 C21         -3.2440    -0.6280    -3.2160 c3         1 J3A      -0.027800
     28 H1          -0.5430     0.0000    -0.9370 ha         1 J3A       0.133500
     29 H3          -7.3530    -0.3920     7.3470 h1         1 J3A       0.064950
     30 H4           1.9190    -0.0000    -0.9390 ha         1 J3A       0.130500
     31 H5           3.1580     0.0030     1.1900 ha         1 J3A       0.130000
     32 H6          -8.0620     0.4260     2.4250 ha         1 J3A       0.149000
     33 H8          -2.2860     0.0010     3.3210 ha         1 J3A       0.151000
     34 H9          -5.3660    -0.4760     5.8950 h1         1 J3A       0.055200
     35 H10         -5.3010     1.2950     5.8700 h1         1 J3A       0.055200
     36 H11          1.9430    -0.0020     3.3330 ha         1 J3A       0.130500
     37 H12         -0.5180    -0.0060     3.3590 ha         1 J3A       0.133500
     38 H14         -9.0880     2.6250     6.2400 h1         1 J3A       0.064950
     39 H15         -9.1560     0.8540     6.2660 h1         1 J3A       0.064950
     40 H16         -7.1020     2.5400     4.7880 h1         1 J3A       0.055200
     41 H17         -8.4450     1.6500     4.0470 h1         1 J3A       0.055200
     42 H18         -7.3340     3.7740     7.4570 h1         1 J3A       0.034700
     43 H19         -5.9790     2.8390     8.1050 h1         1 J3A       0.034700
     44 H20         -6.1960     2.9850     6.3550 h1         1 J3A       0.034700
     45 H21         -7.9510     0.3900    -0.0130 hn         1 J3A       0.466800
     46 H23         -4.1580    -0.1360    -0.5110 ha         1 J3A       0.199000
     47 H24         -2.6600     0.2790    -3.1200 hc         1 J3A       0.050033
     48 H25         -3.3440    -0.8840    -4.2640 hc         1 J3A       0.050033
     49 H26         -2.7470    -1.4350    -2.6930 hc         1 J3A       0.050033
     50 H13         -5.8900    -0.5300    -4.2810 hn         1 J3A       0.328700
     51 C7          -2.1690     0.0060     1.2200 cf         1 J3A      -0.064200
     52 H2          -6.0100     0.4970     8.0880 h1         1 J3A       0.064950
     53 H7          -2.7130     0.0920     0.2870 ha         1 J3A       0.155000
@<TRIPOS>BOND
     1     3     4 ar
     2     3     1 ar
     3     4    15 ar
     4     1    13 ar
     5    15    16 ar
     6    13    16 ar
     7    13    51 1
     8    27    25 1
     9    51     6 2
    10    25    26 2
    11    25    24 1
    12    26    22 1
    13     6     7 1
    14    24    23 1
    15    12     7 ar
    16    12     9 ar
    17    22    23 2
    18    22    21 1
    19     7    11 ar
    20    21     9 1
    21     9     5 ar
    22    11     8 ar
    23     5     8 ar
    24     8    14 1
    25    19    14 1
    26    19    18 1
    27    14    10 1
    28    18    17 1
    29    10     2 1
    30    17     2 1
    31    17    20 1
    32     1    28 1
    33     2    52 1
    34     2    29 1
    35     3    30 1
    36     4    31 1
    37     5    32 1
    38    51    53 1
    39     6    33 1
    40    10    34 1
    41    10    35 1
    42    15    36 1
    43    16    37 1
    44    18    38 1
    45    18    39 1
    46    19    40 1
    47    19    41 1
    48    20    42 1
    49    20    43 1
    50    20    44 1
    51    21    45 1
    52    26    46 1
    53    27    47 1
    54    27    48 1
    55    27    49 1
    56    24    50 1
@<TRIPOS>SUBSTRUCTURE
     1 J3A         1 TEMP              0 ****  ****    0 ROOT
