@<TRIPOS>MOLECULE
J3A
   53    58     1     0     0
SMALL
bcc


@<TRIPOS>ATOM
      1 C4           0.0000     0.0000     0.0000 c2         1 J3A      -0.158500
      2 C14         -6.7160     0.4810     7.2660 c3         1 J3A      -0.083000
      3 C5           1.3790     0.0000     0.0000 c2         1 J3A      -0.066000
      4 C6           2.0750     0.0000     1.1960 c2         1 J3A      -0.138000
      5 C11         -6.9820     0.3370     2.4170 c2         1 J3A      -0.365000
      6 C8          -2.8340     0.0050     2.3860 c2         1 J3A      -0.013000
      7 C9          -4.3020     0.1230     2.3980 c3         1 J3A       0.156000
      8 C10         -6.2590     0.3390     3.6080 c2         1 J3A       0.073000
      9 C12         -6.2860     0.2150     1.2170 c2         1 J3A       0.057000
     10 C13         -5.9530     0.4340     5.9410 c3         1 J3A      -0.138500
     11 N1          -4.9340     0.2320     3.5610 n2         1 J3A      -0.243000
     12 N2          -4.9610     0.1060     1.2450 n2         1 J3A      -0.236000
     13 C3          -0.6950     0.0000     1.2120 c3         1 J3A       0.013000
     14 N3          -6.9110     0.4530     4.8260 n3         1 J3A       0.055000
     15 C1           1.3930     0.0000     2.4000 c2         1 J3A      -0.066000
     16 C2           0.0140    -0.0060     2.4160 c2         1 J3A      -0.158500
     17 N4          -7.5440     1.6940     7.3090 n3         1 J3A      -0.068000
     18 C15         -8.5020     1.7150     6.1950 c3         1 J3A      -0.083000
     19 C16         -7.7390     1.6670     4.8690 c3         1 J3A      -0.138500
     20 C17         -6.7090     2.9020     7.3060 c3         1 J3A      -0.109000
     21 N5          -6.9670     0.2070     0.0080 nu         1 J3A       0.241000
     22 C18         -6.2740    -0.0360    -1.1840 c2         1 J3A      -0.068000
     23 N6          -6.8090    -0.1590    -2.3750 n2         1 J3A      -0.281000
     24 N7          -5.7790    -0.3940    -3.2960 na         1 J3A       0.315000
     25 C19         -4.6110    -0.4090    -2.6200 c2         1 J3A      -0.217000
     26 C20         -4.8830    -0.1850    -1.3140 c2         1 J3A      -0.282000
     27 C21         -3.2440    -0.6280    -3.2160 c3         1 J3A      -0.023000
     28 H1          -0.5430     0.0000    -0.9370 ha         1 J3A       0.119000
     29 H3          -6.0100     0.4970     8.0880 h1         1 J3A       0.069750
     30 H4           1.9190    -0.0000    -0.9390 ha         1 J3A       0.102500
     31 H5           3.1580     0.0030     1.1900 ha         1 J3A       0.105000
     32 H6          -8.0620     0.4260     2.4250 ha         1 J3A       0.140000
     33 H8          -3.4810    -0.8480     2.2240 DU         1 J3A       0.042000
     34 H9          -5.3010     1.2950     5.8700 h1         1 J3A       0.072500
     35 H10         -5.3660    -0.4760     5.8950 h1         1 J3A       0.072500
     36 H11          1.9430    -0.0020     3.3330 ha         1 J3A       0.102500
     37 H12         -0.5180    -0.0060     3.3590 ha         1 J3A       0.119000
     38 H14         -9.0880     2.6250     6.2400 h1         1 J3A       0.069750
     39 H15         -9.1560     0.8540     6.2660 h1         1 J3A       0.069750
     40 H16         -7.1020     2.5400     4.7880 h1         1 J3A       0.072500
     41 H17         -8.4450     1.6500     4.0470 h1         1 J3A       0.072500
     42 H18         -6.1920     2.9820     6.3580 h1         1 J3A       0.045667
     43 H19         -5.9830     2.8420     8.1090 h1         1 J3A       0.045667
     44 H20         -7.3350     3.7750     7.4510 h1         1 J3A       0.045667
     45 H21         -7.9510     0.3900    -0.0130 hn         1 J3A       0.085000
     46 H23         -4.1580    -0.1360    -0.5110 ha         1 J3A       0.191000
     47 H24         -2.6620     0.2810    -3.1250 hc         1 J3A       0.048333
     48 H25         -2.7450    -1.4310    -2.6890 hc         1 J3A       0.048333
     49 H26         -3.3440    -0.8900    -4.2620 hc         1 J3A       0.048333
     50 H13         -5.8900    -0.5300    -4.2810 hn         1 J3A       0.095000
     51 C7          -2.1690     0.0060     1.2200 c2         1 J3A       0.001000
     52 H2          -7.3530    -0.3920     7.3470 h1         1 J3A       0.069750
     53 H7          -1.5950    -0.9060     1.3390 DU         1 J3A       0.075000
@<TRIPOS>BOND
     1     1     3 1   
     2     1    13 1   
     3     1    28 1   
     4     2    10 1   
     5     2    17 1   
     6     2    29 1   
     7     2    52 1   
     8     3     4 1   
     9     3    30 1   
    10     4    15 1   
    11     4    31 1   
    12     5     8 1   
    13     5     9 1   
    14     5    32 1   
    15     6     7 1   
    16     6    33 1   
    17     6    51 1   
    18     7    11 1   
    19     7    12 1   
    20     7    33 1   
    21     8    11 1   
    22     8    14 1   
    23     9    12 1   
    24     9    21 1   
    25    10    14 1   
    26    10    34 1   
    27    10    35 1   
    28    13    16 1   
    29    13    51 1   
    30    13    53 1   
    31    14    19 1   
    32    15    16 1   
    33    15    36 1   
    34    16    37 1   
    35    17    18 1   
    36    17    20 1   
    37    18    19 1   
    38    18    38 1   
    39    18    39 1   
    40    19    40 1   
    41    19    41 1   
    42    20    42 1   
    43    20    43 1   
    44    20    44 1   
    45    21    22 1   
    46    21    45 1   
    47    22    23 1   
    48    22    26 1   
    49    23    24 1   
    50    24    25 1   
    51    24    50 1   
    52    25    26 1   
    53    25    27 1   
    54    26    46 1   
    55    27    47 1   
    56    27    48 1   
    57    27    49 1   
    58    51    53 1   
@<TRIPOS>SUBSTRUCTURE
     1 J3A         1 TEMP              0 ****  ****    0 ROOT
