@<TRIPOS>MOLECULE
J3B
   36    37     1     0     0
SMALL
bcc


@<TRIPOS>ATOM
      1 C10          0.0000     0.0000     0.0000 ca         1 J3B      -0.115000
      2 C12          1.3910     0.0000     0.0000 ca         1 J3B      -0.005400
      3 C15          1.5810     0.6450    -2.2780 c          1 J3B       0.590100
      4 N01         -2.1090     0.0210     3.6850 nz         1 J3B       0.120400
      5 C04         -0.7300     0.0110     3.6830 ce         1 J3B       0.247800
      6 N05         -0.0780     0.0010     4.8110 n2         1 J3B      -0.481100
      7 C07          0.0090     0.0110     2.4010 ca         1 J3B      -0.239900
      8 C08         -0.6900     0.0060     1.1920 ca         1 J3B      -0.031000
      9 N13          2.0870     0.0010    -1.2090 ns         1 J3B      -0.010100
     10 O16          0.5690     1.3050    -2.1660 o          1 J3B      -0.632100
     11 C17          2.2700     0.5470    -3.6140 c3         1 J3B      -0.188700
     12 C19          1.4940     1.3660    -4.6490 c3         1 J3B      -0.015400
     13 C22          2.0450     1.0340    -6.0420 c3         1 J3B      -0.039400
     14 C25          1.6910    -0.4160    -6.3760 c3         1 J3B       0.036000
     15 N28          2.0860    -1.3000    -5.2870 ns         1 J3B      -0.141900
     16 C30          2.3290    -0.8910    -4.0410 c          1 J3B       0.618500
     17 O31          2.6120    -1.7260    -3.2080 o          1 J3B      -0.729500
     18 C32          2.0890     0.0000     1.2030 ca         1 J3B      -0.115000
     19 C34          1.4040    -0.0000     2.3990 ca         1 J3B      -0.031000
     20 H1          -0.5410    -0.0040    -0.9380 ha         1 J3B       0.143500
     21 H2          -2.4370     0.8380     3.2080 hn         1 J3B       0.226467
     22 H3          -2.4420     0.0300     4.6280 hn         1 J3B       0.226467
     23 H4          -0.5760     0.0010     5.6790 hn         1 J3B       0.334400
     24 H5          -1.7730     0.0060     1.1920 ha         1 J3B       0.103000
     25 H6           2.9800    -0.4470    -1.2720 hn         1 J3B       0.208500
     26 H7           3.2780     0.9360    -3.5330 hc         1 J3B       0.067700
     27 H8           1.6260     2.4230    -4.4480 hc         1 J3B       0.039200
     28 H9           0.4430     1.1090    -4.6030 hc         1 J3B       0.039200
     29 H10          3.1220     1.1540    -6.0440 hc         1 J3B       0.032200
     30 H11          1.5980     1.6940    -6.7750 hc         1 J3B       0.032200
     31 H12          0.6220    -0.4960    -6.5290 h1         1 J3B       0.024700
     32 H13          2.2100    -0.7100    -7.2800 h1         1 J3B       0.024700
     33 H14          2.1820    -2.2760    -5.4870 hn         1 J3B       0.189500
     34 H15          3.1720    -0.0040     1.2000 ha         1 J3B       0.143500
     35 H16          1.9490    -0.0000     3.3350 ha         1 J3B       0.103000
     36 H013        -2.4490    -0.7930     3.2130 hn         1 J3B       0.226467
@<TRIPOS>BOND
     1     1     2 ar  
     2     1     8 ar  
     3     1    20 1   
     4     2     9 1   
     5     2    18 ar  
     6     3     9 1   
     7     3    10 2   
     8     3    11 1   
     9     4     5 1   
    10     4    21 1   
    11     4    22 1   
    12     4    36 1   
    13     5     6 2   
    14     5     7 1   
    15     6    23 1   
    16     7     8 ar  
    17     7    19 ar  
    18     8    24 1   
    19     9    25 1   
    20    11    12 1   
    21    11    16 1   
    22    11    26 1   
    23    12    13 1   
    24    12    27 1   
    25    12    28 1   
    26    13    14 1   
    27    13    29 1   
    28    13    30 1   
    29    14    15 1   
    30    14    31 1   
    31    14    32 1   
    32    15    16 1   
    33    15    33 1   
    34    16    17 2   
    35    18    19 ar  
    36    18    34 1   
    37    19    35 1   
@<TRIPOS>SUBSTRUCTURE
     1 J3B         1 TEMP              0 ****  ****    0 ROOT
