@<TRIPOS>MOLECULE
molecule
   42    45     1     0     0
SMALL
bcc


@<TRIPOS>ATOM
      1 C2           0.0000     0.0000     0.0000 c3         1 J3Z      -0.020400
      2 C4          -0.0030    -1.1680    -2.2310 c3         1 J3Z      -0.056400
      3 C5           1.5070    -1.0790    -2.2070 c3         1 J3Z      -0.179000
      4 C6           1.9420     0.2950    -2.7210 c3         1 J3Z      -0.084100
      5 C7           2.2710    -2.1370    -2.9450 c          1 J3Z       0.590100
      6 C8           3.5780    -2.3210    -2.1820 c3         1 J3Z      -0.192400
      7 C9           3.4910    -1.4080    -0.9270 c3         1 J3Z      -0.075400
      8 C10          1.9780    -1.2480    -0.7350 c3         1 J3Z      -0.062700
      9 C12          1.5340     0.0000     0.0000 c3         1 J3Z      -0.062700
     10 C3          -0.5560     0.0170    -1.4170 c3         1 J3Z      -0.077400
     11 C14          2.0030     0.0000     1.4560 c3         1 J3Z      -0.076400
     12 C15          1.6830     1.3670     2.0600 c3         1 J3Z      -0.035100
     13 C16          0.2610     1.7720     1.7710 ca         1 J3Z      -0.062300
     14 C21         -0.5160     1.1490     0.8170 ca         1 J3Z      -0.078300
     15 C17         -0.2700     2.8240     2.5070 ca         1 J3Z      -0.157000
     16 C18         -1.5670     3.2520     2.2860 ca         1 J3Z       0.104100
     17 C19         -2.3450     2.6270     1.3220 ca         1 J3Z      -0.153000
     18 C20         -1.8180     1.5810     0.5940 ca         1 J3Z      -0.116000
     19 H2          -0.3310    -0.9170     0.4740 hc         1 J3Z       0.059700
     20 H14         -0.3220    -2.1010    -1.7830 hc         1 J3Z       0.053200
     21 H24         -0.3570    -1.1050    -3.2530 hc         1 J3Z       0.053200
     22 H16          1.6130     0.4180    -3.7450 hc         1 J3Z       0.045700
     23 H26          1.4990     1.0680    -2.1040 hc         1 J3Z       0.045700
     24 H36          3.0220     0.3720    -2.6760 hc         1 J3Z       0.045700
     25 HO3         -1.8570     5.0990     2.5980 ho         1 J3Z       0.418000
     26 H18          4.4140    -2.0190    -2.8010 hc         1 J3Z       0.071700
     27 H28          3.6870    -3.3550    -1.8790 hc         1 J3Z       0.071700
     28 H19          3.9370    -1.8950    -0.0680 hc         1 J3Z       0.051700
     29 H29          3.9560    -0.4490    -1.1190 hc         1 J3Z       0.051700
     30 H10          1.5460    -2.1370    -0.2920 hc         1 J3Z       0.064700
     31 H12          1.9040     0.8820    -0.5090 hc         1 J3Z       0.067700
     32 H13         -0.2720     0.9440    -1.8990 hc         1 J3Z       0.048200
     33 H23         -1.6360    -0.0540    -1.3750 hc         1 J3Z       0.048200
     34 H114         1.4610    -0.7630     2.0010 hc         1 J3Z       0.049200
     35 H214         3.0750    -0.1550     1.4820 hc         1 J3Z       0.049200
     36 H115         1.8100     1.3050     3.1340 hc         1 J3Z       0.053700
     37 H215         2.3450     2.1010     1.6180 hc         1 J3Z       0.053700
     38 H17          0.3360     3.3120     3.2600 ha         1 J3Z       0.139000
     39 H19A        -3.3920     2.8840     1.2210 ha         1 J3Z       0.142000
     40 H20         -2.4240     1.0920    -0.1590 ha         1 J3Z       0.136000
     41 O1           1.9210    -2.7240    -3.9420 o          1 J3Z      -0.506100
     42 O3          -2.0780     4.2810     3.0130 oh         1 J3Z      -0.523100
@<TRIPOS>BOND
     1     6     7 1
     2     6     5 1
     3    41     5 2
     4     7     8 1
     5     5     3 1
     6     4     3 1
     7     3     8 1
     8     3     2 1
     9     8     9 1
    10    11     9 1
    11    11    12 1
    12     9     1 1
    13     2    10 1
    14    12    13 1
    15     1    10 1
    16     1    14 1
    17    13    14 ar
    18    13    15 ar
    19    14    18 ar
    20    15    16 ar
    21    18    17 ar
    22    16    17 ar
    23    16    42 1
    24     1    19 1
    25     2    20 1
    26     2    21 1
    27     4    22 1
    28     4    23 1
    29     4    24 1
    30    42    25 1
    31     6    26 1
    32     6    27 1
    33     7    28 1
    34     7    29 1
    35     8    30 1
    36     9    31 1
    37    10    32 1
    38    10    33 1
    39    11    34 1
    40    11    35 1
    41    12    36 1
    42    12    37 1
    43    15    38 1
    44    17    39 1
    45    18    40 1
@<TRIPOS>SUBSTRUCTURE
     1 J3Z         1 TEMP              0 ****  ****    0 ROOT
