@<TRIPOS>MOLECULE
J3Z
   42    41     1     0     0
SMALL
bcc


@<TRIPOS>ATOM
      1 C2         -2.0610    0.0220    0.7050 c3        1 J3Z     -0.229000
      2 C4          0.8970   -1.9940   -2.4030 c3        1 J3Z     -0.202000
      3 C5          2.2120   -1.3010   -2.0550 c3        1 J3Z     -0.068000
      4 C6          2.2590    0.0540   -2.7510 c3        1 J3Z     -0.202000
      5 C7          3.3800   -2.1430   -2.5710 c2        1 J3Z      0.233000
      6 C8          4.7240   -1.4860   -2.5720 c3        1 J3Z     -0.269000
      7 C9          2.9780   -2.0420    0.1910 c2        1 J3Z     -0.227000
      8 C10         2.3080   -1.1570   -0.5550 c2        1 J3Z     -0.095000
      9 C12         1.5940    0.0170    0.0190 c3        1 J3Z     -0.154000
     10 C3         -3.2300   -0.2840   -0.0770 c1        1 J3Z     -0.038000
     11 C14         1.3230   -0.0870    1.5090 c3        1 J3Z     -0.192000
     12 C15         0.3900    0.8360    2.0960 c1        1 J3Z     -0.024000
     13 C16        -0.4680    1.7760    1.4640 c2        1 J3Z     -0.059000
     14 C21        -1.6460    1.4490    0.8670 c2        1 J3Z     -0.114000
     15 C17        -0.0370    3.1590    1.6490 c2        1 J3Z     -0.264000
     16 C18         0.5400    3.5820    2.7910 c2        1 J3Z      0.027000
     17 C19        -3.7100    2.1580   -0.2660 c1        1 J3Z      0.079000
     18 C20        -2.6030    2.4330    0.4050 c2        1 J3Z     -0.400000
     19 H2         -1.2060   -0.5860    0.2760 hc        1 J3Z      0.162500
     20 H14         0.0340   -1.4180   -1.9930 hc        1 J3Z      0.084333
     21 H24         0.7910   -2.0690   -3.5110 hc        1 J3Z      0.084333
     22 H16         2.3570   -0.0880   -3.8540 hc        1 J3Z      0.084333
     23 H26         1.3200    0.6260   -2.5540 hc        1 J3Z      0.084333
     24 H36         3.1270    0.6550   -2.3870 hc        1 J3Z      0.084333
     25 HO3         0.7810    5.4040    2.2360 ho        1 J3Z      0.215000
     26 H18         4.8900   -0.9520   -1.6050 hc        1 J3Z      0.105000
     27 H28         3.0520   -1.9680    1.2840 ha        1 J3Z      0.121500
     28 H19         4.7730   -0.7450   -3.4070 hc        1 J3Z      0.105000
     29 H29         5.5310   -2.2440   -2.7180 hc        1 J3Z      0.105000
     30 H10         3.4950   -2.9090   -0.2430 ha        1 J3Z      0.121500
     31 H12         2.2060    0.9400   -0.1810 hc        1 J3Z      0.098500
     32 H13         0.8840   -3.0260   -1.9770 hc        1 J3Z      0.084333
     33 H23        -3.8970    0.5280   -0.4910 ha        1 J3Z      0.122000
     34 H114        0.6150    0.1550   -0.5190 hc        1 J3Z      0.098500
     35 H214       -2.2710   -0.4290    1.7280 hc        1 J3Z      0.162500
     36 H115        0.9220   -1.1160    1.7660 hc        1 J3Z      0.151000
     37 H215        2.2910    0.0150    2.0840 hc        1 J3Z      0.151000
     38 H17        -0.2150    3.8370    0.8000 ha        1 J3Z      0.140000
     39 H19A        0.7320    2.9530    3.6800 h4        1 J3Z      0.188000
     40 H20        -2.3840    3.4930    0.6450 ha        1 J3Z      0.186000
     41 O1          3.2210   -3.2980   -2.9750 o         1 J3Z     -0.287000
     42 O3          0.9700    4.8580    3.0140 oh        1 J3Z     -0.252000
@<TRIPOS>BOND
     1    1   10 1   
     2    1   14 1   
     3    1   19 1   
     4    1   35 1   
     5    2    3 1   
     6    2   20 1   
     7    2   21 1   
     8    2   32 1   
     9    3    4 1   
    10    3    5 1   
    11    3    8 1   
    12    4   22 1   
    13    4   23 1   
    14    4   24 1   
    15    5    6 1   
    16    5   41 1   
    17    6   26 1   
    18    6   28 1   
    19    6   29 1   
    20    7    8 1   
    21    7   27 1   
    22    7   30 1   
    23    8    9 1   
    24    9   11 1   
    25    9   31 1   
    26    9   34 1   
    27   10   33 1   
    28   11   12 1   
    29   11   36 1   
    30   11   37 1   
    31   12   13 1   
    32   13   14 1   
    33   13   15 1   
    34   14   18 1   
    35   15   16 1   
    36   15   38 1   
    37   16   39 1   
    38   16   42 1   
    39   17   18 1   
    40   18   40 1   
    41   25   42 1   
@<TRIPOS>SUBSTRUCTURE
     1 J3Z         1 TEMP              0 ****  ****    0 ROOT
