@<TRIPOS>MOLECULE
molecule
   34    35     1     0     0
SMALL
bcc


@<TRIPOS>ATOM
      1 N1           0.0000     0.0000     0.0000 nb         1 J43      -0.780000
      2 C2           1.3290     0.0000     0.0000 ca         1 J43       0.861300
      3 N3           2.0350     0.0000     1.1220 nb         1 J43      -0.809000
      4 C4           1.4330    -0.0020     2.3050 ca         1 J43       0.752200
      5 C5           0.0180    -0.0030     2.3500 ca         1 J43      -0.498200
      6 C6          -0.6830    -0.0020     1.1310 ca         1 J43       0.648300
      7 N7           2.1710    -0.0030     3.4690 nu         1 J43      -0.757300
      8 C8           3.5630    -0.1200     3.4130 ca         1 J43       0.261600
      9 C9           4.3540     0.5190     4.3600 ca         1 J43      -0.154000
     10 C10          5.7290     0.4020     4.3010 ca         1 J43      -0.007500
     11 C11          6.3190    -0.3500     3.3020 ca         1 J43      -0.370500
     12 C12          5.5340    -0.9880     2.3590 ca         1 J43      -0.007500
     13 C13          4.1590    -0.8800     2.4140 ca         1 J43      -0.154000
     14 S14          8.0730    -0.4960     3.2310 sy         1 J43       1.224200
     15 O15          8.3950    -0.8130     1.8830 o          1 J43      -0.520800
     16 O16          8.5980     0.6360     3.9100 o          1 J43      -0.520800
     17 N17          8.4920    -1.8200     4.1360 nz         1 J43      -0.805500
     18 C18         -0.6940    -0.0050     3.6260 c          1 J43       0.579500
     19 O19         -1.9080    -0.0050     3.6430 o          1 J43      -0.483100
     20 Cl20        -2.4180    -0.0020     1.1130 cl         1 J43      -0.066000
     21 S21          2.1810     0.0030    -1.5430 ss         1 J43      -0.221400
     22 C22          0.7710     0.0020    -2.6790 c3         1 J43      -0.022000
     23 HN7          1.7090     0.0430     4.3550 hn         1 J43       0.478800
     24 H9           3.8960     1.1530     5.1090 ha         1 J43       0.176500
     25 H10          6.3460     0.9060     5.0350 ha         1 J43       0.157500
     26 H12          5.9990    -1.5700     1.5720 ha         1 J43       0.157500
     27 H13          3.5430    -1.4450     1.7240 ha         1 J43       0.176500
     28 HN17         9.4860    -1.9340     4.1190 hn         1 J43       0.490133
     29 HN1A         8.1880    -1.6880     5.0800 hn         1 J43       0.490133
     30 H18         -0.1390    -0.0530     4.5560 h4         1 J43      -0.015800
     31 H22          0.1690     0.8860    -2.5080 h1         1 J43       0.083367
     32 H22A         1.1310     0.0030    -3.7010 h1         1 J43       0.083367
     33 H22B         0.1710    -0.8830    -2.5090 h1         1 J43       0.083367
     34 H173         8.0540    -2.6350     3.7560 hn         1 J43       0.490133
@<TRIPOS>BOND
     1     1     2 ar
     2     1     6 ar
     3     2     3 ar
     4     2    21 1
     5     3     4 ar
     6     4     5 ar
     7     4     7 1
     8     5     6 ar
     9     5    18 1
    10     6    20 1
    11     7     8 1
    12     8     9 ar
    13     8    13 ar
    14     9    10 ar
    15    10    11 ar
    16    11    12 ar
    17    11    14 1
    18    12    13 ar
    19    14    15 2
    20    14    16 2
    21    14    17 1
    22    18    19 2
    23    21    22 1
    24     7    23 1
    25     9    24 1
    26    10    25 1
    27    12    26 1
    28    13    27 1
    29    17    28 1
    30    17    29 1
    31    18    30 1
    32    22    31 1
    33    22    32 1
    34    22    33 1
    35    34    17 1
@<TRIPOS>SUBSTRUCTURE
     1 J43         1 TEMP              0 ****  ****    0 ROOT
