@<TRIPOS>MOLECULE
J45
   30    31     1     0     0
SMALL
bcc


@<TRIPOS>ATOM
      1 N1           0.0000     0.0000     0.0000 nb         1 J45      -0.630000
      2 C2           1.3180     0.0000     0.0000 ca         1 J45       0.732900
      3 N3           2.0140     0.0000     1.1190 nb         1 J45      -0.704000
      4 C4           1.4010     0.0010     2.2990 ca         1 J45       0.580200
      5 C5           0.0060     0.0000     2.3370 ca         1 J45      -0.711800
      6 C6          -0.6830     0.0010     1.1380 ca         1 J45       0.521300
      7 N7           2.1370     0.0000     3.4750 nu         1 J45      -0.291300
      8 C8           3.5300    -0.1170     3.4270 ca         1 J45       0.102600
      9 C9           4.3140     0.5200     4.3790 ca         1 J45      -0.136500
     10 C10          5.6900     0.4020     4.3300 ca         1 J45       0.038500
     11 C11          6.2850    -0.3510     3.3330 ca         1 J45      -0.254500
     12 C12          5.5060    -0.9870     2.3840 ca         1 J45       0.038500
     13 C13          4.1310    -0.8780     2.4310 ca         1 J45      -0.136500
     14 S14          8.0400    -0.4980     3.2740 sy         1 J45       0.936200
     15 O15          8.3700    -0.8150     1.9280 o          1 J45      -0.496300
     16 O16          8.5610     0.6330     3.9570 o          1 J45      -0.496300
     17 N17          8.4520    -1.8220     4.1800 nz         1 J45      -0.132500
     18 N18         -0.7180     0.0000     3.6280 no         1 J45       1.040200
     19 O19         -1.0160     1.0550     4.1590 o          1 J45      -0.417500
     20 O20         -1.0160    -1.0540     4.1590 o          1 J45      -0.417500
     21 Cl21        -2.4190     0.0020     1.1210 cl         1 J45       0.024000
     22 H2           1.8440    -0.0000    -0.9470 h5         1 J45       0.014100
     23 HN7          1.6690     0.0440     4.3590 hn         1 J45       0.307800
     24 H9           3.8480     1.1100     5.1590 ha         1 J45       0.148000
     25 H10          6.3020     0.8990     5.0720 ha         1 J45       0.126000
     26 H12          5.9760    -1.5770     1.6070 ha         1 J45       0.126000
     27 H13          3.5220    -1.3760     1.6870 ha         1 J45       0.148000
     28 HN17         8.1410    -1.6910     5.1220 hn         1 J45       0.312800
     29 HN1A         9.4460    -1.9380     4.1690 hn         1 J45       0.312800
     30 H173         8.0170    -2.6380     3.7960 hn         1 J45       0.312800
@<TRIPOS>BOND
     1     1     2 ar  
     2     1     6 ar  
     3     2     3 ar  
     4     2    22 1   
     5     3     4 ar  
     6     4     5 ar  
     7     4     7 1   
     8     5     6 ar  
     9     5    18 1   
    10     6    21 1   
    11     7     8 1   
    12     7    23 1   
    13     8     9 ar  
    14     8    13 ar  
    15     9    10 ar  
    16     9    24 1   
    17    10    11 ar  
    18    10    25 1   
    19    11    12 ar  
    20    11    14 1   
    21    12    13 ar  
    22    12    26 1   
    23    13    27 1   
    24    14    15 2   
    25    14    16 2   
    26    14    17 1   
    27    17    28 1   
    28    17    29 1   
    29    17    30 1   
    30    18    19 1   
    31    18    20 1   
@<TRIPOS>SUBSTRUCTURE
     1 J45         1 TEMP              0 ****  ****    0 ROOT
