@<TRIPOS>MOLECULE
molecule
   25    26     1     0     0
SMALL
bcc


@<TRIPOS>ATOM
      1 N1          -1.3070    -0.0070    -2.2100 n1         1 J47      -0.349800
      2 C1          -0.7200    -0.0010    -1.2380 cg         1 J47       0.246800
      3 C2           0.0000     0.0000     0.0000 ca         1 J47      -0.040000
      4 C3           1.3970     0.0000     0.0000 ca         1 J47      -0.032000
      5 C4           2.0840     0.0000     1.1960 ca         1 J47      -0.062900
      6 Br1          3.9760     0.0000     1.1950 br         1 J47      -0.081100
      7 C5           1.3940     0.0020     2.3980 ca         1 J47      -0.046000
      8 C6           0.0140     0.0020     2.4110 ca         1 J47      -0.219000
      9 C7          -0.6930     0.0060     1.2190 ca         1 J47       0.188100
     10 O1          -2.0500     0.0120     1.2310 os         1 J47      -0.216200
     11 C8          -2.6770     0.1240     2.4320 ca         1 J47       0.067100
     12 C9          -3.0810    -1.0130     3.1120 ca         1 J47      -0.100000
     13 C10         -2.9090     1.3810     2.9840 ca         1 J47       0.126100
     14 O2          -2.5090     2.5000     2.3220 oh         1 J47      -0.487100
     15 C11         -3.5490     1.4900     4.2080 ca         1 J47      -0.184000
     16 C12         -3.9550     0.3510     4.8790 ca         1 J47       0.058400
     17 Cl1         -4.7570     0.4880     6.4130 cl         1 J47      -0.091400
     18 C13         -3.7200    -0.8980     4.3330 ca         1 J47      -0.137000
     19 H1           1.9380     0.0180    -0.9380 ha         1 J47       0.161000
     20 H2           1.9390     0.0020     3.3340 ha         1 J47       0.150000
     21 H3          -0.5180     0.0030     3.3550 ha         1 J47       0.152000
     22 H4          -2.8980    -1.9930     2.6870 ha         1 J47       0.159000
     23 H5          -2.0470     3.0680     2.9160 ho         1 J47       0.426000
     24 H6          -3.7300     2.4670     4.6390 ha         1 J47       0.157000
     25 H7          -4.0360    -1.7870     4.8650 ha         1 J47       0.155000
@<TRIPOS>BOND
     1     6     5 1
     2     4     5 ar
     3     4     3 ar
     4     5     7 ar
     5     1     2 3
     6     2     3 1
     7     3     9 ar
     8     7     8 ar
     9     9     8 ar
    10     9    10 1
    11    10    11 1
    12    11    12 ar
    13    11    13 ar
    14    12    18 ar
    15    14    13 1
    16    13    15 ar
    17    18    16 ar
    18    15    16 ar
    19    16    17 1
    20     4    19 1
    21     7    20 1
    22     8    21 1
    23    12    22 1
    24    14    23 1
    25    15    24 1
    26    18    25 1
@<TRIPOS>SUBSTRUCTURE
     1 J47         1 TEMP              0 ****  ****    0 ROOT
