@<TRIPOS>MOLECULE
molecule
   21    22     1     0     0
SMALL
bcc


@<TRIPOS>ATOM
      1 C1           0.0000     0.0000     0.0000 ca         1 J4K      -0.177500
      2 C2           1.3810     0.0000     0.0000 ca         1 J4K      -0.081000
      3 C3           2.0740     0.0000     1.1980 ca         1 J4K      -0.002600
      4 C4           1.3850     0.0000     2.3970 ca         1 J4K      -0.081000
      5 C5           0.0040    -0.0010     2.4010 ca         1 J4K      -0.177500
      6 C6          -0.6930     0.0000     1.2020 ca         1 J4K       0.140100
      7 O7          -2.0520    -0.0000     1.2040 os         1 J4K      -0.351900
      8 C8          -2.6990    -0.0000     2.4790 c3         1 J4K       0.123100
      9 C9          -4.1930     0.0000     2.2830 cc         1 J4K       0.344800
     10 N10         -4.8500     0.0010     1.1080 na         1 J4K      -0.105400
     11 N11         -6.1120    -0.0000     1.3800 nc         1 J4K      -0.220800
     12 N12         -6.2620    -0.0000     2.6570 nd         1 J4K      -0.028000
     13 N13         -5.1050    -0.0060     3.2250 nd         1 J4K      -0.378000
     14 Cl1          3.8110     0.0000     1.1940 cl         1 J4K      -0.102400
     15 H1          -0.5420     0.0000    -0.9380 ha         1 J4K       0.146000
     16 H2           1.9230    -0.0000    -0.9380 ha         1 J4K       0.151000
     17 H4           1.9290    -0.0000     3.3340 ha         1 J4K       0.151000
     18 H5          -0.5350    -0.0010     3.3410 ha         1 J4K       0.146000
     19 H8          -2.4070     0.8840     3.0320 h1         1 J4K       0.073700
     20 H8A         -2.4070    -0.8850     3.0320 h1         1 J4K       0.073700
     21 HN10        -4.4380     0.0010     0.1960 hn         1 J4K       0.354700
@<TRIPOS>BOND
     1     1     2 ar
     2     1     6 ar
     3     2     3 ar
     4     3     4 ar
     5     3    14 1
     6     4     5 ar
     7     5     6 ar
     8     6     7 1
     9     7     8 1
    10     8     9 1
    11     9    10 1
    12     9    13 2
    13    10    11 1
    14    11    12 2
    15    12    13 1
    16     1    15 1
    17     2    16 1
    18     4    17 1
    19     5    18 1
    20     8    19 1
    21     8    20 1
    22    10    21 1
@<TRIPOS>SUBSTRUCTURE
     1 J4K         1 TEMP              0 ****  ****    0 ROOT
