@<TRIPOS>MOLECULE
molecule
   50    52     1     0     0
SMALL
bcc


@<TRIPOS>ATOM
      1 N            0.0000     0.0000     0.0000 ns         1 J4P      -0.566900
      2 CA           1.4650     0.0000     0.0000 c3         1 J4P       0.104000
      3 C            1.9680     0.0000     1.4200 c          1 J4P       0.660100
      4 O            1.1800     0.0000     2.3420 o          1 J4P      -0.558100
      5 CAG          3.5260    -2.2680    -2.2030 ca         1 J4P      -0.106500
      6 CAH          1.7880    -3.5760    -1.1630 ca         1 J4P      -0.106500
      7 CAI          3.0630    -1.1440    -1.5500 ca         1 J4P      -0.117000
      8 CAJ          1.3300    -2.4440    -0.5200 ca         1 J4P      -0.117000
      9 CAK          4.4780    -4.6180    -3.5710 ca         1 J4P      -0.155500
     10 CAL          2.7390    -5.9270    -2.5310 ca         1 J4P      -0.155500
     11 CAM         -4.6000     4.0420    -0.1520 c3         1 J4P      -0.083900
     12 CAN         -3.6240     4.2980    -1.3180 c3         1 J4P      -0.083900
     13 CAO         -4.2330     2.6210     0.3450 c3         1 J4P      -0.080400
     14 CAP         -2.4090     3.3830    -1.0840 c3         1 J4P      -0.080400
     15 CAT         -0.6730     1.1630     0.0970 c          1 J4P       0.669100
     16 CAV          4.9320    -5.7480    -4.2260 ca         1 J4P       0.129400
     17 CAW          3.1920    -7.0500    -3.1970 ca         1 J4P       0.129400
     18 CAX          2.8880    -3.4930    -2.0150 cp         1 J4P      -0.035000
     19 CAY          3.3780    -4.7030    -2.7200 cp         1 J4P       0.002000
     20 CAZ          1.9670    -1.2310    -0.7110 ca         1 J4P      -0.100300
     21 CBA          4.2900    -6.9630    -4.0390 ca         1 J4P       0.059900
     22 CBB         -2.6890     2.6020     0.2160 c3         1 J4P      -0.057700
     23 FAE          2.5640    -8.2340    -3.0270 f          1 J4P      -0.117900
     24 FAF          4.7360    -8.0660    -4.6810 f          1 J4P      -0.112900
     25 NAR          3.2930    -0.0010     1.6670 ns         1 J4P      -0.468400
     26 OAA         -0.0660     2.2100     0.1820 o          1 J4P      -0.604100
     27 OAC          3.7650    -0.0010     3.0010 oh         1 J4P      -0.359100
     28 H1          -0.5000    -0.8610    -0.1020 hn         1 J4P       0.323500
     29 H2           1.8260     0.8840    -0.5110 h1         1 J4P       0.100700
     30 H3           4.3830    -2.1980    -2.8620 ha         1 J4P       0.140500
     31 H4           1.2890    -4.5250    -1.0140 ha         1 J4P       0.140500
     32 H5           3.5570    -0.1910    -1.6960 ha         1 J4P       0.139500
     33 H6           0.4750    -2.5070     0.1420 ha         1 J4P       0.139500
     34 H7           4.9780    -3.6690    -3.7180 ha         1 J4P       0.159000
     35 H8           1.8830    -5.9960    -1.8720 ha         1 J4P       0.159000
     36 H10         -4.4460     4.7690     0.6360 hc         1 J4P       0.042200
     37 H11         -4.0990     4.0490    -2.2590 hc         1 J4P       0.042200
     38 H12         -3.3110     5.3350    -1.3170 hc         1 J4P       0.042200
     39 H13         -4.6800     1.8660    -0.2920 hc         1 J4P       0.045950
     40 H14         -4.5320     2.4880     1.3780 hc         1 J4P       0.045950
     41 H15         -2.3000     2.6950    -1.9130 hc         1 J4P       0.045950
     42 H16         -1.5130     3.9810    -0.9700 hc         1 J4P       0.045950
     43 H19         -2.2350     3.1020     1.0620 hc         1 J4P       0.078700
     44 H20          3.9420     0.0350     0.9060 hn         1 J4P       0.318500
     45 H21          4.6750     0.2450     3.0120 ho         1 J4P       0.398000
     46 FAD          6.0010    -5.6680    -5.0470 f          1 J4P      -0.117900
     47 CAQ         -2.1810     1.1640     0.0980 c3         1 J4P      -0.146400
     48 H9          -5.6240     4.0660    -0.5040 hc         1 J4P       0.042200
     49 H17         -2.5420     0.7270    -0.8260 hc         1 J4P       0.062700
     50 H18         -2.5420     0.5820     0.9370 hc         1 J4P       0.062700
@<TRIPOS>BOND
     1    11    12 1
     2    11    13 1
     3    12    14 1
     4    13    22 1
     5    14    22 1
     6    27    25 1
     7    22    47 1
     8    25     3 1
     9     4     3 2
    10     3     2 1
    11    47    15 1
    12    15     1 1
    13    15    26 2
    14     1     2 1
    15     2    20 1
    16    20     7 ar
    17    20     8 ar
    18     7     5 ar
    19     8     6 ar
    20     5    18 ar
    21     6    18 ar
    22    18    19 1
    23    19    10 ar
    24    19     9 ar
    25    10    17 ar
    26     9    16 ar
    27    17    23 1
    28    17    21 ar
    29    16    21 ar
    30    16    46 1
    31    21    24 1
    32     1    28 1
    33     2    29 1
    34     5    30 1
    35     6    31 1
    36     7    32 1
    37     8    33 1
    38     9    34 1
    39    10    35 1
    40    11    48 1
    41    11    36 1
    42    12    37 1
    43    12    38 1
    44    13    39 1
    45    13    40 1
    46    14    41 1
    47    14    42 1
    48    47    49 1
    49    47    50 1
    50    22    43 1
    51    25    44 1
    52    27    45 1
@<TRIPOS>SUBSTRUCTURE
     1 J4P         1 TEMP              0 ****  ****    0 ROOT
