@<TRIPOS>MOLECULE
J4P
   50    52     1     0     0
SMALL
bcc


@<TRIPOS>ATOM
      1 N            0.0000     0.0000     0.0000 ns         1 J4P      -0.175900
      2 CA           1.4650     0.0000     0.0000 c3         1 J4P       0.014000
      3 C            1.9680     0.0000     1.4200 c          1 J4P       0.561100
      4 O            1.1800     0.0000     2.3420 o          1 J4P      -0.607100
      5 CAG          3.5260    -2.2680    -2.2030 ca         1 J4P      -0.083500
      6 CAH          1.7880    -3.5760    -1.1630 ca         1 J4P      -0.083500
      7 CAI          3.0630    -1.1440    -1.5500 ca         1 J4P      -0.089000
      8 CAJ          1.3300    -2.4440    -0.5200 ca         1 J4P      -0.089000
      9 CAK          4.4780    -4.6180    -3.5710 ca         1 J4P      -0.127500
     10 CAL          2.7390    -5.9270    -2.5310 ca         1 J4P      -0.127500
     11 CAM         -4.6000     4.0420    -0.1520 c3         1 J4P      -0.024400
     12 CAN         -3.6240     4.2980    -1.3180 c3         1 J4P      -0.024400
     13 CAO         -4.2330     2.6210     0.3450 c3         1 J4P      -0.027900
     14 CAP         -2.4090     3.3830    -1.0840 c3         1 J4P      -0.027900
     15 CAT         -0.6730     1.1630     0.0970 c          1 J4P       0.585100
     16 CAV          4.9320    -5.7480    -4.2260 ca         1 J4P       0.112900
     17 CAW          3.1920    -7.0500    -3.1970 ca         1 J4P       0.112900
     18 CAX          2.8880    -3.4930    -2.0150 cp         1 J4P      -0.037000
     19 CAY          3.3780    -4.7030    -2.7200 cp         1 J4P       0.011000
     20 CAZ          1.9670    -1.2310    -0.7110 ca         1 J4P      -0.111300
     21 CBA          4.2900    -6.9630    -4.0390 ca         1 J4P       0.052900
     22 CBB         -2.6890     2.6020     0.2160 c3         1 J4P      -0.033700
     23 FAE          2.5640    -8.2340    -3.0270 f          1 J4P      -0.109900
     24 FAF          4.7360    -8.0660    -4.6810 f          1 J4P      -0.102900
     25 NAR          3.2930    -0.0010     1.6670 ns         1 J4P      -0.050400
     26 OAA         -0.0660     2.2100     0.1820 o          1 J4P      -0.647100
     27 OAC          3.7650    -0.0010     3.0010 oh         1 J4P      -0.435100
     28 H1          -0.5000    -0.8610    -0.1020 hn         1 J4P       0.182500
     29 H2           1.8260     0.8840    -0.5110 h1         1 J4P       0.069700
     30 H3           4.3830    -2.1980    -2.8620 ha         1 J4P       0.116500
     31 H4           1.2890    -4.5250    -1.0140 ha         1 J4P       0.116500
     32 H5           3.5570    -0.1910    -1.6960 ha         1 J4P       0.114500
     33 H6           0.4750    -2.5070     0.1420 ha         1 J4P       0.114500
     34 H7           4.9780    -3.6690    -3.7180 ha         1 J4P       0.135500
     35 H8           1.8830    -5.9960    -1.8720 ha         1 J4P       0.135500
     36 H10         -4.4460     4.7690     0.6360 hc         1 J4P       0.011950
     37 H11         -4.0990     4.0490    -2.2590 hc         1 J4P       0.011950
     38 H12         -3.3110     5.3350    -1.3170 hc         1 J4P       0.011950
     39 H13         -4.6800     1.8660    -0.2920 hc         1 J4P       0.017950
     40 H14         -4.5320     2.4880     1.3780 hc         1 J4P       0.017950
     41 H15         -2.3000     2.6950    -1.9130 hc         1 J4P       0.017950
     42 H16         -1.5130     3.9810    -0.9700 hc         1 J4P       0.017950
     43 H19         -2.2350     3.1020     1.0620 hc         1 J4P       0.052700
     44 H20          3.9420     0.0350     0.9060 hn         1 J4P       0.156500
     45 H21          4.6750     0.2450     3.0120 ho         1 J4P       0.392000
     46 FAD          6.0010    -5.6680    -5.0470 f          1 J4P      -0.109900
     47 CAQ         -2.1810     1.1640     0.0980 c3         1 J4P      -0.089400
     48 H9          -5.6240     4.0660    -0.5040 hc         1 J4P       0.011950
     49 H17         -2.5420     0.7270    -0.8260 hc         1 J4P       0.030200
     50 H18         -2.5420     0.5820     0.9370 hc         1 J4P       0.030200
@<TRIPOS>BOND
     1     1     2 1   
     2     1    15 1   
     3     1    28 1   
     4     2     3 1   
     5     2    20 1   
     6     2    29 1   
     7     3     4 2   
     8     3    25 1   
     9     5     7 ar  
    10     5    18 ar  
    11     5    30 1   
    12     6     8 ar  
    13     6    18 ar  
    14     6    31 1   
    15     7    20 ar  
    16     7    32 1   
    17     8    20 ar  
    18     8    33 1   
    19     9    16 ar  
    20     9    19 ar  
    21     9    34 1   
    22    10    17 ar  
    23    10    19 ar  
    24    10    35 1   
    25    11    12 1   
    26    11    13 1   
    27    11    36 1   
    28    11    48 1   
    29    12    14 1   
    30    12    37 1   
    31    12    38 1   
    32    13    22 1   
    33    13    39 1   
    34    13    40 1   
    35    14    22 1   
    36    14    41 1   
    37    14    42 1   
    38    15    26 2   
    39    15    47 1   
    40    16    21 ar  
    41    16    46 1   
    42    17    21 ar  
    43    17    23 1   
    44    18    19 1   
    45    21    24 1   
    46    22    43 1   
    47    22    47 1   
    48    25    27 1   
    49    25    44 1   
    50    27    45 1   
    51    47    49 1   
    52    47    50 1   
@<TRIPOS>SUBSTRUCTURE
     1 J4P         1 TEMP              0 ****  ****    0 ROOT
