@<TRIPOS>MOLECULE
J4S
   44    46     1     0     0
SMALL
bcc


@<TRIPOS>ATOM
      1 N            0.0000     0.0000     0.0000 ns         1 J4S      -0.176900
      2 CA           1.4650     0.0000     0.0000 c3         1 J4S       0.015000
      3 C            1.9670     1.2300    -0.7100 c          1 J4S       0.561100
      4 O            1.1790     2.0290    -1.1720 o          1 J4S      -0.607100
      5 CAA          3.5270    -0.7750     3.0640 ca         1 J4S      -0.084000
      6 CAB          3.0630    -0.7710     1.7640 ca         1 J4S      -0.088500
      7 CAC          1.9670     0.0000     1.4210 ca         1 J4S      -0.111300
      8 CAD          1.3310     0.7710     2.3770 ca         1 J4S      -0.088500
      9 CAE          1.7870     0.7760     3.6800 ca         1 J4S      -0.084000
     10 CAF          2.8870    -0.0050     4.0320 cp         1 J4S      -0.037000
     11 CAG          3.3810    -0.0050     5.4310 cp         1 J4S       0.011000
     12 CAH          2.7410     0.7660     6.3980 ca         1 J4S      -0.127500
     13 CAI          3.2050     0.7640     7.7000 ca         1 J4S       0.112400
     14 CAJ          4.3060    -0.0050     8.0440 ca         1 J4S       0.052900
     15 CAK          4.9460    -0.7740     7.0840 ca         1 J4S       0.112400
     16 CAL          4.4840    -0.7800     5.7810 ca         1 J4S      -0.127500
     17 CAS         -0.6740    -0.4980    -1.0550 c          1 J4S       0.586100
     18 CAT         -2.1810    -0.5040    -1.0520 c3         1 J4S      -0.054400
     19 CAV         -2.6920    -1.1180    -2.3570 cx         1 J4S      -0.095700
     20 CAZ         -4.2030    -1.1100    -2.5980 cx         1 J4S      -0.084900
     21 CBA         -3.4890    -2.4210    -2.2600 cx         1 J4S      -0.084900
     22 FAM          6.0190    -1.5220     7.4240 f          1 J4S      -0.109900
     23 FAN          4.7560    -0.0050     9.3180 f          1 J4S      -0.102900
     24 FAO          2.5830     1.5110     8.6390 f          1 J4S      -0.109900
     25 NAW          3.2930     1.4430    -0.8340 ns         1 J4S      -0.050400
     26 OAU         -0.0680    -0.9420    -2.0070 o          1 J4S      -0.644100
     27 OAX          3.7640     2.6000    -1.5010 oh         1 J4S      -0.436100
     28 H1          -0.5000     0.3580     0.7890 hn         1 J4S       0.181500
     29 H2           1.8260    -0.8850    -0.5110 h1         1 J4S       0.070700
     30 H4           3.5610    -1.3700     1.0100 ha         1 J4S       0.114000
     31 H5           0.4760     1.3770     2.1010 ha         1 J4S       0.114000
     32 H6           1.2870     1.3780     4.4280 ha         1 J4S       0.116500
     33 H7           1.8800     1.3670     6.1300 ha         1 J4S       0.135500
     34 H8           4.9850    -1.3810     5.0320 ha         1 J4S       0.135500
     35 H9          -2.5380    -1.0890    -0.2130 hc         1 J4S       0.030200
     36 H10         -2.5460     0.5130    -0.9640 hc         1 J4S       0.030200
     37 H11         -2.0900    -1.0210    -3.2520 hc         1 J4S       0.086700
     38 H12         -4.8010    -0.6850    -1.8020 hc         1 J4S       0.043450
     39 H13         -4.5110    -0.9990    -3.6310 hc         1 J4S       0.043450
     40 H14         -3.6510    -2.7960    -1.2570 hc         1 J4S       0.043450
     41 H15         -3.3610    -3.1100    -3.0860 hc         1 J4S       0.043450
     42 H16          3.9430     0.7650    -0.4900 hn         1 J4S       0.156500
     43 H17          4.6750     2.4880    -1.7180 ho         1 J4S       0.392000
     44 H3           4.3840    -1.3810     3.3320 ha         1 J4S       0.116500
@<TRIPOS>BOND
     1     1     2 1   
     2     1    17 1   
     3     1    28 1   
     4     2     3 1   
     5     2     7 1   
     6     2    29 1   
     7     3     4 2   
     8     3    25 1   
     9     5     6 ar  
    10     5    10 ar  
    11     5    44 1   
    12     6     7 ar  
    13     6    30 1   
    14     7     8 ar  
    15     8     9 ar  
    16     8    31 1   
    17     9    10 ar  
    18     9    32 1   
    19    10    11 1   
    20    11    12 ar  
    21    11    16 ar  
    22    12    13 ar  
    23    12    33 1   
    24    13    14 ar  
    25    13    24 1   
    26    14    15 ar  
    27    14    23 1   
    28    15    16 ar  
    29    15    22 1   
    30    16    34 1   
    31    17    18 1   
    32    17    26 2   
    33    18    19 1   
    34    18    35 1   
    35    18    36 1   
    36    19    20 1   
    37    19    21 1   
    38    19    37 1   
    39    20    21 1   
    40    20    38 1   
    41    20    39 1   
    42    21    40 1   
    43    21    41 1   
    44    25    27 1   
    45    25    42 1   
    46    27    43 1   
@<TRIPOS>SUBSTRUCTURE
     1 J4S         1 TEMP              0 ****  ****    0 ROOT
