@<TRIPOS>MOLECULE
J4V
   58    62     1     0     0
SMALL
bcc


@<TRIPOS>ATOM
      1 CBA          0.0000     0.0000     0.0000 c3         1 J4V      -0.025900
      2 CAZ          1.5300     0.0000     0.0000 c3         1 J4V      -0.025200
      3 CBF          2.0400     0.0000     1.4420 c3         1 J4V      -0.025900
      4 CBC          1.5300    -1.2480     2.1640 c3         1 J4V      -0.039700
      5 CBB          2.0390    -2.4980     1.4430 c3         1 J4V      -0.025900
      6 CBD         -0.0000    -1.2480     2.1640 c3         1 J4V      -0.016400
      7 CBE         -0.5110    -1.2480     0.7220 c3         1 J4V      -0.039700
      8 CBG         -0.0020    -2.4980     0.0010 c3         1 J4V      -0.025900
      9 CAY          1.5290    -2.4990     0.0010 c3         1 J4V      -0.025200
     10 CAW          2.0400    -1.2500    -0.7210 c3         1 J4V      -0.107700
     11 CAV          1.5370    -1.2510    -2.1420 c          1 J4V       0.596100
     12 OAX          0.8400    -0.3410    -2.5390 o          1 J4V      -0.647100
     13 N            1.8620    -2.2620    -2.9710 ns         1 J4V      -0.175900
     14 CA           1.3730    -2.2630    -4.3520 c3         1 J4V       0.013000
     15 C            2.3030    -1.4480    -5.2140 c          1 J4V       0.561100
     16 O            3.2780    -0.9210    -4.7230 o          1 J4V      -0.608100
     17 NAS          2.0520    -1.3080    -6.5310 ns         1 J4V      -0.049400
     18 OAT          2.9260    -0.5440    -7.3410 oh         1 J4V      -0.436100
     19 CAC          1.3220    -3.6780    -4.8660 ca         1 J4V      -0.110300
     20 CAD          0.2600    -4.0880    -5.6530 ca         1 J4V      -0.088500
     21 CAE          0.2080    -5.3830    -6.1270 ca         1 J4V      -0.083500
     22 CAB          2.3390    -4.5620    -4.5540 ca         1 J4V      -0.088500
     23 CAA          2.2970    -5.8600    -5.0220 ca         1 J4V      -0.083500
     24 CAF          1.2270    -6.2800    -5.8100 cp         1 J4V      -0.037000
     25 CAG          1.1760    -7.6730    -6.3160 cp         1 J4V       0.011000
     26 CAH          2.1950    -8.5690    -5.9990 ca         1 J4V      -0.127500
     27 CAI          2.1450    -9.8660    -6.4720 ca         1 J4V       0.112400
     28 FAO          3.1320   -10.7350    -6.1660 f          1 J4V      -0.110400
     29 CAJ          1.0800   -10.2780    -7.2610 ca         1 J4V       0.052900
     30 FAN          1.0330   -11.5460    -7.7220 f          1 J4V      -0.101900
     31 CAK          0.0640    -9.3890    -7.5780 ca         1 J4V       0.112400
     32 FAM         -0.9710    -9.7940    -8.3470 f          1 J4V      -0.110400
     33 CAL          0.1050    -8.0920    -7.1040 ca         1 J4V      -0.127500
     34 H1          -0.3610     0.8850     0.5100 hc         1 J4V       0.021450
     35 H2          -0.3610    -0.0010    -1.0210 hc         1 J4V       0.021450
     36 H3           1.8920     0.8840    -0.5110 hc         1 J4V       0.028200
     37 H4           3.1240    -0.0000     1.4420 hc         1 J4V       0.021450
     38 H5           1.6800     0.8850     1.9520 hc         1 J4V       0.021450
     39 H6           1.8920    -1.2480     3.1850 hc         1 J4V       0.022700
     40 H7           1.6770    -3.3820     1.9550 hc         1 J4V       0.021450
     41 H8           3.1220    -2.4990     1.4440 hc         1 J4V       0.021450
     42 H9          -0.3610    -0.3640     2.6750 hc         1 J4V       0.014200
     43 H10         -0.3610    -2.1330     2.6750 hc         1 J4V       0.014200
     44 H11         -1.5940    -1.2470     0.7220 hc         1 J4V       0.022700
     45 H12         -0.3630    -3.3820     0.5130 hc         1 J4V       0.021450
     46 H13         -0.3630    -2.4990    -1.0200 hc         1 J4V       0.021450
     47 H14          1.8890    -3.3840    -0.5090 hc         1 J4V       0.028200
     48 H15          3.1230    -1.2510    -0.7210 hc         1 J4V       0.044700
     49 H16          2.4760    -2.9880    -2.6580 hn         1 J4V       0.186500
     50 H17          0.3800    -1.8310    -4.3840 h1         1 J4V       0.070700
     51 H18          1.2250    -1.7090    -6.9270 hn         1 J4V       0.156500
     52 H19          2.4980    -0.3350    -8.1550 ho         1 J4V       0.392000
     53 H20         -0.5320    -3.3900    -5.8990 ha         1 J4V       0.114000
     54 H21         -0.6250    -5.7030    -6.7410 ha         1 J4V       0.116500
     55 H22          3.1700    -4.2350    -3.9420 ha         1 J4V       0.114000
     56 H23          3.0930    -6.5520    -4.7750 ha         1 J4V       0.116500
     57 H24          3.0520    -8.2340    -5.4270 ha         1 J4V       0.135500
     58 H25         -0.6890    -7.3980    -7.3530 ha         1 J4V       0.135500
@<TRIPOS>BOND
     1     1     2 1   
     2     1     7 1   
     3     1    34 1   
     4     1    35 1   
     5     2     3 1   
     6     2    10 1   
     7     2    36 1   
     8     3     4 1   
     9     3    37 1   
    10     3    38 1   
    11     4     5 1   
    12     4     6 1   
    13     4    39 1   
    14     5     9 1   
    15     5    40 1   
    16     5    41 1   
    17     6     7 1   
    18     6    42 1   
    19     6    43 1   
    20     7     8 1   
    21     7    44 1   
    22     8     9 1   
    23     8    45 1   
    24     8    46 1   
    25     9    10 1   
    26     9    47 1   
    27    10    11 1   
    28    10    48 1   
    29    11    12 2   
    30    11    13 1   
    31    13    14 1   
    32    13    49 1   
    33    14    15 1   
    34    14    19 1   
    35    14    50 1   
    36    15    16 2   
    37    15    17 1   
    38    17    18 1   
    39    17    51 1   
    40    18    52 1   
    41    19    20 ar  
    42    19    22 ar  
    43    20    21 ar  
    44    20    53 1   
    45    21    24 ar  
    46    21    54 1   
    47    22    23 ar  
    48    22    55 1   
    49    23    24 ar  
    50    23    56 1   
    51    24    25 1   
    52    25    26 ar  
    53    25    33 ar  
    54    26    27 ar  
    55    26    57 1   
    56    27    28 1   
    57    27    29 ar  
    58    29    30 1   
    59    29    31 ar  
    60    31    32 1   
    61    31    33 ar  
    62    33    58 1   
@<TRIPOS>SUBSTRUCTURE
     1 J4V         1 TEMP              0 ****  ****    0 ROOT
