@<TRIPOS>MOLECULE
molecule
   58    62     1     0     0
SMALL
bcc


@<TRIPOS>ATOM
      1 CBA          0.0000     0.0000     0.0000 c3         1 J4V      -0.072150
      2 CAZ          1.5300     0.0000     0.0000 c3         1 J4V      -0.050700
      3 CBF          2.0400     0.0000     1.4420 c3         1 J4V      -0.072150
      4 CBC          1.5300    -1.2480     2.1640 c3         1 J4V      -0.066700
      5 CBB          2.0390    -2.4980     1.4430 c3         1 J4V      -0.072150
      6 CBD         -0.0000    -1.2480     2.1640 c3         1 J4V      -0.068400
      7 CBE         -0.5110    -1.2480     0.7220 c3         1 J4V      -0.066700
      8 CBG         -0.0020    -2.4980     0.0010 c3         1 J4V      -0.072150
      9 CAY          1.5290    -2.4990     0.0010 c3         1 J4V      -0.050700
     10 CAW          2.0400    -1.2500    -0.7210 c3         1 J4V      -0.128700
     11 CAV          1.5370    -1.2510    -2.1420 c          1 J4V       0.678100
     12 OAX          0.8400    -0.3410    -2.5390 o          1 J4V      -0.607100
     13 N            1.8620    -2.2620    -2.9710 ns         1 J4V      -0.563900
     14 CA           1.3730    -2.2630    -4.3520 c3         1 J4V       0.103000
     15 C            2.3030    -1.4480    -5.2140 c          1 J4V       0.659100
     16 O            3.2780    -0.9210    -4.7230 o          1 J4V      -0.559100
     17 NAS          2.0520    -1.3080    -6.5310 ns         1 J4V      -0.468400
     18 OAT          2.9260    -0.5440    -7.3410 oh         1 J4V      -0.359100
     19 CAC          1.3220    -3.6780    -4.8660 ca         1 J4V      -0.098300
     20 CAD          0.2600    -4.0880    -5.6530 ca         1 J4V      -0.117000
     21 CAE          0.2080    -5.3830    -6.1270 ca         1 J4V      -0.106500
     22 CAB          2.3390    -4.5620    -4.5540 ca         1 J4V      -0.117000
     23 CAA          2.2970    -5.8600    -5.0220 ca         1 J4V      -0.106500
     24 CAF          1.2270    -6.2800    -5.8100 cp         1 J4V      -0.035000
     25 CAG          1.1760    -7.6730    -6.3160 cp         1 J4V       0.002000
     26 CAH          2.1950    -8.5690    -5.9990 ca         1 J4V      -0.155500
     27 CAI          2.1450    -9.8660    -6.4720 ca         1 J4V       0.128400
     28 FAO          3.1320   -10.7350    -6.1660 f          1 J4V      -0.118400
     29 CAJ          1.0800   -10.2780    -7.2610 ca         1 J4V       0.060900
     30 FAN          1.0330   -11.5460    -7.7220 f          1 J4V      -0.111900
     31 CAK          0.0640    -9.3890    -7.5780 ca         1 J4V       0.128400
     32 FAM         -0.9710    -9.7940    -8.3470 f          1 J4V      -0.118400
     33 CAL          0.1050    -8.0920    -7.1040 ca         1 J4V      -0.155500
     34 H1          -0.3610     0.8850     0.5100 hc         1 J4V       0.047200
     35 H2          -0.3610    -0.0010    -1.0210 hc         1 J4V       0.047200
     36 H3           1.8920     0.8840    -0.5110 hc         1 J4V       0.053700
     37 H4           3.1240    -0.0000     1.4420 hc         1 J4V       0.047200
     38 H5           1.6800     0.8850     1.9520 hc         1 J4V       0.047200
     39 H6           1.8920    -1.2480     3.1850 hc         1 J4V       0.048700
     40 H7           1.6770    -3.3820     1.9550 hc         1 J4V       0.047200
     41 H8           3.1220    -2.4990     1.4440 hc         1 J4V       0.047200
     42 H9          -0.3610    -0.3640     2.6750 hc         1 J4V       0.040200
     43 H10         -0.3610    -2.1330     2.6750 hc         1 J4V       0.040200
     44 H11         -1.5940    -1.2470     0.7220 hc         1 J4V       0.048700
     45 H12         -0.3630    -3.3820     0.5130 hc         1 J4V       0.047200
     46 H13         -0.3630    -2.4990    -1.0200 hc         1 J4V       0.047200
     47 H14          1.8890    -3.3840    -0.5090 hc         1 J4V       0.053700
     48 H15          3.1230    -1.2510    -0.7210 hc         1 J4V       0.071700
     49 H16          2.4760    -2.9880    -2.6580 hn         1 J4V       0.324500
     50 H17          0.3800    -1.8310    -4.3840 h1         1 J4V       0.101700
     51 H18          1.2250    -1.7090    -6.9270 hn         1 J4V       0.318500
     52 H19          2.4980    -0.3350    -8.1550 ho         1 J4V       0.398000
     53 H20         -0.5320    -3.3900    -5.8990 ha         1 J4V       0.138500
     54 H21         -0.6250    -5.7030    -6.7410 ha         1 J4V       0.140500
     55 H22          3.1700    -4.2350    -3.9420 ha         1 J4V       0.138500
     56 H23          3.0930    -6.5520    -4.7750 ha         1 J4V       0.140500
     57 H24          3.0520    -8.2340    -5.4270 ha         1 J4V       0.159000
     58 H25         -0.6890    -7.3980    -7.3530 ha         1 J4V       0.159000
@<TRIPOS>BOND
     1    18    17 1
     2     1     2 1
     3     1     7 1
     4    17    15 1
     5    16    15 2
     6     2     3 1
     7     2    10 1
     8     3     4 1
     9     6     7 1
    10     6     4 1
    11     7     8 1
    12    15    14 1
    13     4     5 1
    14    12    11 2
    15    11    10 1
    16    11    13 1
    17    10     9 1
    18    13    14 1
    19    14    19 1
    20     8     9 1
    21     9     5 1
    22    19    20 ar
    23    19    22 ar
    24    20    21 ar
    25    22    23 ar
    26    21    24 ar
    27    23    24 ar
    28    24    25 1
    29    25    26 ar
    30    25    33 ar
    31    26    27 ar
    32    33    31 ar
    33    27    28 1
    34    27    29 ar
    35    31    29 ar
    36    31    32 1
    37    29    30 1
    38     1    34 1
    39     1    35 1
    40     2    36 1
    41     3    37 1
    42     3    38 1
    43     4    39 1
    44     5    40 1
    45     5    41 1
    46     6    42 1
    47     6    43 1
    48     7    44 1
    49     8    45 1
    50     8    46 1
    51     9    47 1
    52    10    48 1
    53    13    49 1
    54    14    50 1
    55    17    51 1
    56    18    52 1
    57    20    53 1
    58    21    54 1
    59    22    55 1
    60    23    56 1
    61    26    57 1
    62    33    58 1
@<TRIPOS>SUBSTRUCTURE
     1 J4V         1 TEMP              0 ****  ****    0 ROOT
