@<TRIPOS>MOLECULE
molecule
   48    51     1     0     0
SMALL
bcc


@<TRIPOS>ATOM
      1 N1           0.0000     0.0000     0.0000 nz         1 J4X      -0.740600
      2 C2           1.3780     0.0000     0.0000 ce         1 J4X       0.526800
      3 N3           2.0290     0.0000     1.1280 n2         1 J4X      -0.737100
      4 C4           2.1190    -0.0010    -1.2820 ca         1 J4X      -0.244900
      5 C5           1.4110    -0.0020    -2.4960 ca         1 J4X      -0.157000
      6 C6           2.0670    -0.0030    -3.6830 ca         1 J4X      -0.055000
      7 C7           3.4750    -0.0020    -3.7100 ca         1 J4X      -0.003000
      8 C8           4.1720    -0.0040    -4.9270 ca         1 J4X      -0.089000
      9 C9           5.5580    -0.0040    -4.9240 ca         1 J4X      -0.079600
     10 C10          6.2710    -0.0030    -3.7140 ca         1 J4X      -0.120000
     11 C11          5.6120    -0.0030    -2.5180 ca         1 J4X       0.188600
     12 N12          6.3330    -0.0020    -1.3240 nu         1 J4X      -0.753300
     13 C13          7.6190     0.5140    -1.2910 ca         1 J4X       0.919900
     14 N14          8.3380     0.3880    -0.1860 nb         1 J4X      -0.790000
     15 C15          9.5690     0.8700    -0.1210 ca         1 J4X       0.498700
     16 C16         10.1020     1.5120    -1.2280 ca         1 J4X      -0.408600
     17 C17          9.3220     1.6260    -2.3680 ca         1 J4X       0.498700
     18 N18          8.1010     1.1180    -2.3680 nb         1 J4X      -0.790000
     19 C19          4.2000    -0.0020    -2.4910 ca         1 J4X      -0.062000
     20 C20          3.5030     0.0040    -1.2750 ca         1 J4X      -0.042000
     21 C21          6.2940    -0.0040    -6.2060 c          1 J4X       0.666700
     22 O22          5.6830    -0.0050    -7.2570 o          1 J4X      -0.579100
     23 N23          7.6420    -0.0040    -6.2100 ns         1 J4X      -0.460100
     24 C24          8.3370     0.1040    -7.4190 ca         1 J4X       0.043600
     25 C25          7.7620     0.7640    -8.4960 ca         1 J4X      -0.147000
     26 C26          8.4520     0.8690    -9.6880 ca         1 J4X      -0.106000
     27 C27          9.7130     0.3150    -9.8090 ca         1 J4X      -0.136000
     28 C28         10.2890    -0.3440    -8.7390 ca         1 J4X      -0.106000
     29 C29          9.6070    -0.4460    -7.5410 ca         1 J4X      -0.147000
     30 HN1         -0.3350    -0.8180    -0.4700 hn         1 J4X       0.473467
     31 HN1A        -0.3340     0.0010     0.9430 hn         1 J4X       0.473467
     32 HN3          3.0300    -0.0000     1.1310 hn         1 J4X       0.478400
     33 H5           0.3270    -0.0010    -2.4840 ha         1 J4X       0.106000
     34 H6           1.5080    -0.0030    -4.6110 ha         1 J4X       0.163000
     35 H8           3.6300    -0.0040    -5.8650 ha         1 J4X       0.177000
     36 H10          7.3540    -0.0030    -3.7290 ha         1 J4X       0.185000
     37 HN12         5.9230    -0.3760    -0.4910 hn         1 J4X       0.463800
     38 H15         10.0850     0.9120     0.8300 h4         1 J4X       0.045600
     39 H16         11.1650     1.7140    -1.2770 ha         1 J4X       0.163000
     40 H17          9.6430     2.2650    -3.1820 h4         1 J4X       0.045600
     41 H20          4.0400     0.1460    -0.3440 ha         1 J4X       0.134000
     42 HN23         8.1440    -0.1110    -5.3510 hn         1 J4X       0.327500
     43 H25          6.7740     1.1980    -8.4010 ha         1 J4X       0.145000
     44 H26          8.0040     1.3840   -10.5290 ha         1 J4X       0.138000
     45 H27         10.2510     0.3960   -10.7460 ha         1 J4X       0.137000
     46 H28         11.2780    -0.7740    -8.8360 ha         1 J4X       0.138000
     47 H29         10.0570    -0.9630    -6.7030 ha         1 J4X       0.145000
     48 H13         -0.3350     0.8110    -0.4820 hn         1 J4X       0.473467
@<TRIPOS>BOND
     1     2     1 1
     2     1    30 1
     3     1    31 1
     4     4     2 1
     5     2     3 2
     6     3    32 1
     7    20     4 ar
     8     4     5 ar
     9     6     5 ar
    10     5    33 1
    11     7     6 ar
    12     6    34 1
    13     8     7 ar
    14    19     7 ar
    15     9     8 ar
    16     8    35 1
    17    21     9 1
    18    10     9 ar
    19    10    11 ar
    20    10    36 1
    21    12    11 1
    22    11    19 ar
    23    13    12 1
    24    12    37 1
    25    18    13 ar
    26    13    14 ar
    27    15    14 ar
    28    16    15 ar
    29    15    38 1
    30    17    16 ar
    31    16    39 1
    32    17    18 ar
    33    17    40 1
    34    19    20 ar
    35    20    41 1
    36    22    21 2
    37    21    23 1
    38    24    23 1
    39    23    42 1
    40    29    24 ar
    41    25    24 ar
    42    26    25 ar
    43    25    43 1
    44    27    26 ar
    45    26    44 1
    46    27    28 ar
    47    27    45 1
    48    28    29 ar
    49    28    46 1
    50    29    47 1
    51    48     1 1
@<TRIPOS>SUBSTRUCTURE
     1 J4X         1 TEMP              0 ****  ****    0 ROOT
