@<TRIPOS>MOLECULE
J53
   80    84     1     0     0
SMALL
bcc


@<TRIPOS>ATOM
      1 O4           0.0000     0.0000     0.0000 o          1 J53      -0.899300
      2 C31          1.2090     0.0000     0.0000 c          1 J53       0.984600
      3 O3           1.8800     0.0050    -1.1620 o          1 J53      -0.899300
      4 C29          1.9620     0.0000     1.3060 c3         1 J53      -0.154700
      5 C30          2.0720     1.4340     1.8300 c3         1 J53      -0.010400
      6 C32          2.9670     1.4550     3.0710 c3         1 J53      -0.007100
      7 C26          1.2140    -0.8600     2.3260 c3         1 J53       0.035900
      8 C25          1.1700    -2.2870     1.8430 ca         1 J53      -0.088300
      9 C24          0.0830    -2.7370     1.1160 ca         1 J53      -0.012000
     10 C23          0.0400    -4.0440     0.6720 ca         1 J53      -0.216000
     11 C21          1.0890    -4.9060     0.9560 ca         1 J53       0.139100
     12 O1           1.0500    -6.1930     0.5210 os         1 J53      -0.315900
     13 C34         -0.1030    -6.5900    -0.2250 c3         1 J53       0.200400
     14 C33          0.0310    -8.0610    -0.6270 c3         1 J53      -0.037400
     15 C28         -1.2020    -8.4860    -1.4250 c3         1 J53      -0.024400
     16 C27         -1.0680    -9.9560    -1.8260 c3         1 J53       0.006900
     17 C22          2.2190    -3.1430     2.1240 ca         1 J53      -0.055000
     18 C20          2.1790    -4.4530     1.6860 ca         1 J53      -0.188300
     19 C19          3.3190    -5.3870     1.9970 c3         1 J53       0.126300
     20 N            4.1940    -5.4960     0.8270 ns         1 J53      -0.171900
     21 C3           5.2870    -6.2820     0.8740 c          1 J53       0.586700
     22 O2           5.5480    -6.9020     1.8870 o          1 J53      -0.679100
     23 C1           6.1710    -6.3910    -0.3060 ca         1 J53      -0.152600
     24 C4           5.8780    -5.6770    -1.4690 ca         1 J53      -0.056000
     25 C8           6.7070    -5.7830    -2.5670 ca         1 J53      -0.124500
     26 C6           7.8260    -6.5950    -2.5170 ca         1 J53      -0.066300
     27 C5           8.1210    -7.3080    -1.3680 ca         1 J53      -0.124500
     28 C2           7.3040    -7.2050    -0.2620 ca         1 J53      -0.056000
     29 C7           8.7260    -6.7060    -3.7210 c3         1 J53       0.000300
     30 C41          9.8800    -7.6610    -3.4080 c3         1 J53      -0.016733
     31 C37         10.7950    -7.7730    -4.6300 c3         1 J53      -0.040367
     32 C40          9.9950    -8.3130    -5.8170 c3         1 J53      -0.016400
     33 C39         11.3540    -6.3920    -4.9770 c3         1 J53      -0.016400
     34 C38         10.2000    -5.4390    -5.2900 c3         1 J53      -0.040367
     35 C9           9.2860    -5.3260    -4.0680 c3         1 J53      -0.016733
     36 C42          9.4000    -5.9790    -6.4780 c3         1 J53      -0.016400
     37 C12          8.8400    -7.3600    -6.1300 c3         1 J53      -0.040367
     38 C11          7.9270    -7.2460    -4.9080 c3         1 J53      -0.016733
     39 H2           2.9550    -0.4050     1.1500 hc         1 J53       0.029700
     40 H3           2.5020     2.0670     1.0640 hc         1 J53       0.017200
     41 H4           1.0860     1.8000     2.0900 hc         1 J53       0.017200
     42 H5           2.3720     1.2350     3.9490 hc         1 J53      -0.010300
     43 H6           3.7460     0.7100     2.9670 hc         1 J53      -0.010300
     44 H7           3.4160     2.4350     3.1750 hc         1 J53      -0.010300
     45 H8           1.7270    -0.8170     3.2800 hc         1 J53       0.013200
     46 H9           0.2040    -0.4870     2.4420 hc         1 J53       0.013200
     47 H10         -0.7360    -2.0630     0.8940 ha         1 J53       0.147000
     48 H11         -0.8110    -4.3960     0.1020 ha         1 J53       0.113000
     49 H12         -0.1850    -5.9790    -1.1160 h1         1 J53       0.004200
     50 H13         -0.9890    -6.4620     0.3840 h1         1 J53       0.004200
     51 H14          0.1140    -8.6720     0.2640 hc         1 J53       0.021700
     52 H15          0.9180    -8.1890    -1.2360 hc         1 J53       0.021700
     53 H16         -1.2850    -7.8750    -2.3150 hc         1 J53       0.012700
     54 H17         -2.0890    -8.3580    -0.8150 hc         1 J53       0.012700
     55 H18         -1.9420   -10.2570    -2.3920 hc         1 J53      -0.001300
     56 H19         -0.1820   -10.0840    -2.4360 hc         1 J53      -0.001300
     57 H20         -0.9860   -10.5680    -0.9360 hc         1 J53      -0.001300
     58 H21          3.0690    -2.7880     2.6940 ha         1 J53       0.104000
     59 H22          2.9270    -6.3650     2.2470 h1         1 J53       0.023700
     60 H23          3.8840    -4.9990     2.8360 h1         1 J53       0.023700
     61 H24          4.0000    -4.9580     0.0060 hn         1 J53       0.191500
     62 H25          5.0030    -5.0400    -1.5100 ha         1 J53       0.120000
     63 H26          6.4810    -5.2280    -3.4700 ha         1 J53       0.114500
     64 H27          8.9990    -7.9410    -1.3350 ha         1 J53       0.114500
     65 H28          7.5360    -7.7630     0.6370 ha         1 J53       0.120000
     66 H29          9.4840    -8.6380    -3.1620 hc         1 J53       0.023033
     67 H30         10.4460    -7.2790    -2.5670 hc         1 J53       0.023033
     68 H31         11.6120    -8.4490    -4.4080 hc         1 J53       0.020700
     69 H32         10.6420    -8.3930    -6.6820 hc         1 J53       0.012867
     70 H33          9.5990    -9.2910    -5.5710 hc         1 J53       0.012867
     71 H34         11.9200    -6.0100    -4.1360 hc         1 J53       0.012867
     72 H35         12.0020    -6.4720    -5.8420 hc         1 J53       0.012867
     73 H36         10.5960    -4.4610    -5.5370 hc         1 J53       0.020700
     74 H37          8.4680    -4.6500    -4.2900 hc         1 J53       0.023033
     75 H38          9.8520    -4.9440    -3.2280 hc         1 J53       0.023033
     76 H39         10.0470    -6.0590    -7.3430 hc         1 J53       0.012867
     77 H40          8.5820    -5.3030    -6.7000 hc         1 J53       0.012867
     78 H41          8.2730    -7.7420    -6.9700 hc         1 J53       0.020700
     79 H42          7.5310    -8.2240    -4.6620 hc         1 J53       0.023033
     80 H43          7.1090    -6.5710    -5.1300 hc         1 J53       0.023033
@<TRIPOS>BOND
     1     1     2 1   
     2     2     3 1   
     3     2     4 1   
     4     4     5 1   
     5     4     7 1   
     6     4    39 1   
     7     5     6 1   
     8     5    40 1   
     9     5    41 1   
    10     6    42 1   
    11     6    43 1   
    12     6    44 1   
    13     7     8 1   
    14     7    45 1   
    15     7    46 1   
    16     8     9 ar  
    17     8    17 ar  
    18     9    10 ar  
    19     9    47 1   
    20    10    11 ar  
    21    10    48 1   
    22    11    12 1   
    23    11    18 ar  
    24    12    13 1   
    25    13    14 1   
    26    13    49 1   
    27    13    50 1   
    28    14    15 1   
    29    14    51 1   
    30    14    52 1   
    31    15    16 1   
    32    15    53 1   
    33    15    54 1   
    34    16    55 1   
    35    16    56 1   
    36    16    57 1   
    37    17    18 ar  
    38    17    58 1   
    39    18    19 1   
    40    19    20 1   
    41    19    59 1   
    42    19    60 1   
    43    20    21 1   
    44    20    61 1   
    45    21    22 2   
    46    21    23 1   
    47    23    24 ar  
    48    23    28 ar  
    49    24    25 ar  
    50    24    62 1   
    51    25    26 ar  
    52    25    63 1   
    53    26    27 ar  
    54    26    29 1   
    55    27    28 ar  
    56    27    64 1   
    57    28    65 1   
    58    29    30 1   
    59    29    35 1   
    60    29    38 1   
    61    30    31 1   
    62    30    66 1   
    63    30    67 1   
    64    31    32 1   
    65    31    33 1   
    66    31    68 1   
    67    32    37 1   
    68    32    69 1   
    69    32    70 1   
    70    33    34 1   
    71    33    71 1   
    72    33    72 1   
    73    34    35 1   
    74    34    36 1   
    75    34    73 1   
    76    35    74 1   
    77    35    75 1   
    78    36    37 1   
    79    36    76 1   
    80    36    77 1   
    81    37    38 1   
    82    37    78 1   
    83    38    79 1   
    84    38    80 1   
@<TRIPOS>SUBSTRUCTURE
     1 J53         1 TEMP              0 ****  ****    0 ROOT
