@<TRIPOS>MOLECULE
J54
   30    30     1     0     0
SMALL
bcc


@<TRIPOS>ATOM
      1 O02          0.0000     0.0000     0.0000 o          1 J54      -0.882800
      2 C06          1.2080     0.0000     0.0000 c          1 J54       0.958600
      3 C05          1.9620     0.0000     1.3050 c3         1 J54       0.064100
      4 O18          1.0390    -0.1180     2.3880 oh         1 J54      -0.591800
      5 C04          2.7440     1.3080     1.4420 c3         1 J54       0.065000
      6 N02          3.5700     1.2590     2.6510 ns         1 J54      -0.199900
      7 C03          4.3500     2.3080     2.9780 c          1 J54       0.572100
      8 O01          4.3690     3.2960     2.2690 o          1 J54      -0.716100
      9 N01          5.1100     2.2620     4.0900 ns         1 J54      -0.246900
     10 C02          5.9580     3.4030     4.4450 c3         1 J54       0.130300
     11 C01          6.6980     3.1000     5.7220 ca         1 J54      -0.110300
     12 CE1          7.9380     2.4900     5.6740 ca         1 J54      -0.085500
     13 CD1          8.6180     2.2120     6.8460 ca         1 J54      -0.108500
     14 CG           8.0570     2.5450     8.0650 ca         1 J54      -0.106000
     15 CD2          6.8180     3.1560     8.1130 ca         1 J54      -0.108500
     16 CE2          6.1410     3.4380     6.9420 ca         1 J54      -0.085500
     17 OXT          1.8790    -0.0040    -1.1620 o          1 J54      -0.882800
     18 H05          2.6500    -0.8360     1.3240 h1         1 J54      -0.012300
     19 H18          0.8970    -1.0290     2.5830 ho         1 J54       0.372000
     20 H041         3.3810     1.4400     0.5750 h1         1 J54       0.043700
     21 H042         2.0520     2.1370     1.5120 h1         1 J54       0.043700
     22 H02          3.5680     0.4390     3.2260 hn         1 J54       0.158500
     23 H01          5.0970     1.4480     4.6710 hn         1 J54       0.165500
     24 H021         5.3400     4.2810     4.5860 h1         1 J54       0.024200
     25 H022         6.6700     3.5850     3.6500 h1         1 J54       0.024200
     26 HE1          8.3770     2.2290     4.7190 ha         1 J54       0.110500
     27 HE2          5.1700     3.9170     6.9800 ha         1 J54       0.110500
     28 HD1          9.5890     1.7330     6.8080 ha         1 J54       0.099000
     29 HG           8.5890     2.3250     8.9840 ha         1 J54       0.097000
     30 HD2          6.3800     3.4190     9.0690 ha         1 J54       0.099000
@<TRIPOS>BOND
     1     1     2 1   
     2     2     3 1   
     3     2    17 1   
     4     3     4 1   
     5     3     5 1   
     6     3    18 1   
     7     4    19 1   
     8     5     6 1   
     9     5    20 1   
    10     5    21 1   
    11     6     7 1   
    12     6    22 1   
    13     7     8 2   
    14     7     9 1   
    15     9    10 1   
    16     9    23 1   
    17    10    11 1   
    18    10    24 1   
    19    10    25 1   
    20    11    12 ar  
    21    11    16 ar  
    22    12    13 ar  
    23    12    26 1   
    24    13    14 ar  
    25    13    28 1   
    26    14    15 ar  
    27    14    29 1   
    28    15    16 ar  
    29    15    30 1   
    30    16    27 1   
@<TRIPOS>SUBSTRUCTURE
     1 J54         1 TEMP              0 ****  ****    0 ROOT
