@<TRIPOS>MOLECULE
J56
   43    46     1     0     0
SMALL
bcc


@<TRIPOS>ATOM
      1 O1           0.0000     0.0000     0.0000 o          1 J56      -0.519100
      2 C2           1.2130     0.0000     0.0000 c          1 J56       0.563100
      3 N1           1.8870     0.0050    -1.1660 ns         1 J56      -0.114400
      4 C1           1.1940    -0.0970    -2.3720 ca         1 J56       0.371200
      5 N           -0.1300    -0.0900    -2.3700 nb         1 J56      -0.509000
      6 C15          1.9000    -0.2000    -3.5660 ca         1 J56      -0.264300
      7 C16          1.2000    -0.3000    -4.7560 ca         1 J56      -0.038000
      8 C17         -0.1880    -0.2940    -4.7100 ca         1 J56      -0.225300
      9 C           -0.8250    -0.1850    -3.4890 ca         1 J56       0.500500
     10 Br          -2.7140    -0.1760    -3.4180 br         1 J56      -0.198200
     11 C3           1.9660     0.0000     1.3050 c3         1 J56       0.085800
     12 N2           2.7390    -1.2470     1.4640 n          1 J56      -0.178800
     13 C5           4.0360    -1.0940     2.1060 c3         1 J56       0.040000
     14 C4           4.3620     0.3720     2.4740 c3         1 J56       0.104700
     15 S            3.2810     1.2900     1.3010 ss         1 J56      -0.392200
     16 C6           2.2770    -2.4420     1.0460 c          1 J56       0.563100
     17 O            1.1880    -2.5190     0.5160 o          1 J56      -0.577100
     18 C7           3.1120    -3.6820     1.2360 c3         1 J56      -0.062700
     19 N3           2.3940    -4.8410     0.7020 na         1 J56       0.469900
     20 C10          2.4760    -5.3050    -0.5860 ca         1 J56      -0.155200
     21 C11          3.1830    -4.8960    -1.7140 ca         1 J56      -0.124000
     22 C12          3.0500    -5.5860    -2.8850 ca         1 J56      -0.054000
     23 C13          2.2170    -6.6950    -2.9680 ca         1 J56      -0.147000
     24 C14          1.5130    -7.1180    -1.8790 ca         1 J56      -0.009000
     25 C9           1.6320    -6.4280    -0.6670 ca         1 J56      -0.260900
     26 C8           1.0450    -6.5970     0.6580 cc         1 J56       0.448800
     27 N4           1.5170    -5.6570     1.4260 nd         1 J56      -0.615100
     28 H1           2.8800     0.1350    -1.1700 hn         1 J56       0.182500
     29 H2           2.9830    -0.2010    -3.5650 ha         1 J56       0.115000
     30 H3           1.7220    -0.3830    -5.7010 ha         1 J56       0.110000
     31 H4          -0.7650    -0.3720    -5.6230 ha         1 J56       0.125000
     32 H5           1.2950     0.1420     2.1440 h2         1 J56       0.087700
     33 H6           4.0480    -1.6890     3.0110 h1         1 J56       0.024700
     34 H7           4.8020    -1.4600     1.4320 h1         1 J56       0.024700
     35 H8           4.0860     0.5830     3.5000 h1         1 J56       0.058700
     36 H9           5.4060     0.5930     2.2910 h1         1 J56       0.058700
     37 H10          4.0540    -3.5680     0.7120 h1         1 J56       0.046700
     38 H11          3.3030    -3.8310     2.2920 h1         1 J56       0.046700
     39 H12          3.8360    -4.0330    -1.6630 ha         1 J56       0.097000
     40 H13          3.6010    -5.2650    -3.7610 ha         1 J56       0.099000
     41 H14          2.1250    -7.2280    -3.9060 ha         1 J56       0.106000
     42 H15          0.8650    -7.9830    -1.9510 ha         1 J56       0.101000
     43 H16          0.3460    -7.3700     0.9520 h4         1 J56       0.014800
@<TRIPOS>BOND
     1     1     2 2   
     2     2     3 1   
     3     2    11 1   
     4     3     4 1   
     5     3    28 1   
     6     4     5 ar  
     7     4     6 ar  
     8     5     9 ar  
     9     6     7 ar  
    10     6    29 1   
    11     7     8 ar  
    12     7    30 1   
    13     8     9 ar  
    14     8    31 1   
    15     9    10 1   
    16    11    12 1   
    17    11    15 1   
    18    11    32 1   
    19    12    13 1   
    20    12    16 1   
    21    13    14 1   
    22    13    33 1   
    23    13    34 1   
    24    14    15 1   
    25    14    35 1   
    26    14    36 1   
    27    16    17 2   
    28    16    18 1   
    29    18    19 1   
    30    18    37 1   
    31    18    38 1   
    32    19    20 1   
    33    19    27 1   
    34    20    21 ar  
    35    20    25 ar  
    36    21    22 ar  
    37    21    39 1   
    38    22    23 ar  
    39    22    40 1   
    40    23    24 ar  
    41    23    41 1   
    42    24    25 ar  
    43    24    42 1   
    44    25    26 1   
    45    26    27 2   
    46    26    43 1   
@<TRIPOS>SUBSTRUCTURE
     1 J56         1 TEMP              0 ****  ****    0 ROOT
