@<TRIPOS>MOLECULE
molecule
   38    39     1     0     0
SMALL
bcc


@<TRIPOS>ATOM
      1 C1           0.0000     0.0000     0.0000 ce         1 J57      -0.130200
      2 C2           1.3510     0.0000     0.0000 cf         1 J57      -0.180200
      3 C3           2.0850     0.0000     1.2730 ca         1 J57      -0.023800
      4 C4           3.4830     0.0060     1.2750 ca         1 J57      -0.111000
      5 C5           4.1710     0.0050     2.4800 cp         1 J57      -0.065000
      6 C6           5.6550     0.0110     2.4900 cp         1 J57      -0.015000
      7 C7           6.3450     0.9320     3.2760 ca         1 J57      -0.095000
      8 C8           7.7240     0.9300     3.2860 ca         1 J57      -0.089300
      9 O           -0.1010    -0.0050    -2.2810 o          1 J57      -0.840300
     10 C           -0.7090    -0.0050    -1.2280 c          1 J57       0.858800
     11 O1          -2.0580    -0.0100    -1.2280 o          1 J57      -0.840300
     12 C17          1.3870    -0.0010     2.4870 ca         1 J57      -0.117000
     13 C16          2.0730    -0.0010     3.6800 ca         1 J57      -0.178000
     14 C15          3.4610    -0.0020     3.6880 ca         1 J57       0.083100
     15 O2           4.1320    -0.0020     4.8680 oh         1 J57      -0.522100
     16 C14          6.3630    -0.9070     1.7160 ca         1 J57      -0.122000
     17 C13          7.7440    -0.8960     1.7300 ca         1 J57      -0.137000
     18 C12          8.4230     0.0170     2.5170 ca         1 J57      -0.134000
     19 C9           8.4720     1.9250     4.1360 c3         1 J57      -0.026400
     20 C11          9.3440     1.1780     5.1470 c3         1 J57      -0.084100
     21 C10          9.3590     2.7950     3.2420 c3         1 J57      -0.084100
     22 H1          -0.5420     0.0000     0.9380 ha         1 J57       0.103000
     23 H2           1.8920    -0.0040    -0.9380 ha         1 J57       0.155000
     24 H3           4.0260     0.1000     0.3420 ha         1 J57       0.141000
     25 H4           5.7990     1.6480     3.8790 ha         1 J57       0.145000
     26 H17          0.3030    -0.0010     2.4870 ha         1 J57       0.148000
     27 H16          1.5280    -0.0040     4.6170 ha         1 J57       0.123000
     28 H15          3.8770    -0.7550     5.3750 ho         1 J57       0.408000
     29 H14          5.8320    -1.6220     1.1000 ha         1 J57       0.137000
     30 H13          8.2960    -1.6090     1.1290 ha         1 J57       0.121000
     31 H12          9.5060     0.0200     2.5260 ha         1 J57       0.119000
     32 H5           7.7650     2.5530     4.6640 hc         1 J57       0.055700
     33 H10         10.1730     0.7080     4.6320 hc         1 J57       0.032700
     34 H11          9.7260     1.8770     5.8820 hc         1 J57       0.032700
     35 H9           8.7520     0.4190     5.6440 hc         1 J57       0.032700
     36 H7           9.7470     3.6260     3.8180 hc         1 J57       0.032700
     37 H6          10.1830     2.2020     2.8640 hc         1 J57       0.032700
     38 H8           8.7750     3.1720     2.4120 hc         1 J57       0.032700
@<TRIPOS>BOND
     1    20    19 1
     2    21    19 1
     3    19     8 1
     4     8    18 ar
     5     8     7 ar
     6    18    17 ar
     7     7     6 ar
     8    17    16 ar
     9     6    16 ar
    10     6     5 1
    11     9    10 1
    12     4     5 ar
    13     4     3 ar
    14     5    14 ar
    15    10    11 1
    16    10     1 1
    17     2     3 1
    18     2     1 2
    19     3    12 ar
    20    14    15 1
    21    14    13 ar
    22    12    13 ar
    23     1    22 1
    24     2    23 1
    25     4    24 1
    26     7    25 1
    27    12    26 1
    28    13    27 1
    29    15    28 1
    30    16    29 1
    31    17    30 1
    32    18    31 1
    33    19    32 1
    34    20    33 1
    35    20    34 1
    36    20    35 1
    37    21    36 1
    38    21    37 1
    39    21    38 1
@<TRIPOS>SUBSTRUCTURE
     1 J57         1 TEMP              0 ****  ****    0 ROOT
