@<TRIPOS>MOLECULE
J5I
   21    22     1     0     0
SMALL
bcc


@<TRIPOS>ATOM
      1 C01          0.0000     0.0000     0.0000 c3         1 J5I       0.080100
      2 C05          1.5070     0.0000     0.0000 cc         1 J5I      -0.193400
      3 C06          2.1830     0.0000     1.1750 cd         1 J5I      -0.022200
      4 C08          3.6460    -0.0000     1.1400 ca         1 J5I      -0.121800
      5 C09          4.3980    -0.0000     2.3200 ca         1 J5I      -0.041000
      6 C11          5.7630    -0.0000     2.2530 ca         1 J5I      -0.136000
      7 C13          6.4110    -0.0010     1.0250 ca         1 J5I      -0.051000
      8 C15          5.6900    -0.0000    -0.1500 ca         1 J5I      -0.152000
      9 C17          4.2990    -0.0000    -0.1070 ca         1 J5I      -0.076400
     10 N18          3.5540    -0.0010    -1.2660 ns         1 J5I       0.047900
     11 C20          2.2100    -0.0060    -1.2240 c          1 J5I       0.596700
     12 O21          1.5830    -0.0110    -2.2690 o          1 J5I      -0.691500
     13 H011        -0.3610     0.7190    -0.7250 hc         1 J5I       0.013033
     14 H012        -0.3610     0.2690     0.9850 hc         1 J5I       0.013033
     15 H013        -0.3610    -0.9880    -0.2600 hc         1 J5I       0.013033
     16 H06          1.6640    -0.2230     2.1000 ha         1 J5I       0.115000
     17 H09          3.9010     0.0010     3.2820 ha         1 J5I       0.107000
     18 H11          6.3450    -0.0010     3.1670 ha         1 J5I       0.107000
     19 H13          7.4930    -0.0010     0.9910 ha         1 J5I       0.103000
     20 H15          6.2050    -0.0010    -1.1030 ha         1 J5I       0.112000
     21 H18          4.0200    -0.0060    -2.1520 hn         1 J5I       0.175500
@<TRIPOS>BOND
     1     1     2 1   
     2     1    13 1   
     3     1    14 1   
     4     1    15 1   
     5     2     3 2   
     6     2    11 1   
     7     3     4 1   
     8     3    16 1   
     9     4     5 ar  
    10     4     9 ar  
    11     5     6 ar  
    12     5    17 1   
    13     6     7 ar  
    14     6    18 1   
    15     7     8 ar  
    16     7    19 1   
    17     8     9 ar  
    18     8    20 1   
    19     9    10 1   
    20    10    11 1   
    21    10    21 1   
    22    11    12 2   
@<TRIPOS>SUBSTRUCTURE
     1 J5I         1 TEMP              0 ****  ****    0 ROOT
