@<TRIPOS>MOLECULE
molecule
   76    81     1     0     0
SMALL
bcc


@<TRIPOS>ATOM
      1 C            0.0000     0.0000     0.0000 c3         1 J5Y      -0.036800
      2 F           -1.7120    -2.1310    -8.3080 f          1 J5Y      -0.104900
      3 N            1.5060    -0.0110    -2.4140 nh         1 J5Y      -0.617000
      4 O           -2.2460    -0.9360   -10.4360 o          1 J5Y      -0.591100
      5 Cl           6.0130     0.0020     0.0080 cl         1 J5Y      -0.111400
      6 C1           1.5070     0.0000     0.0000 ca         1 J5Y      -0.053300
      7 N1           1.2600     0.0160    -5.2500 nh         1 J5Y      -0.599000
      8 C2           2.1980     0.0000     1.1950 ca         1 J5Y      -0.120000
      9 N2          -1.4230     1.0540   -10.9790 ns         1 J5Y      -0.558900
     10 C3           3.5810     0.0010     1.1970 ca         1 J5Y      -0.118000
     11 N3           2.1080     0.9570   -13.5220 na         1 J5Y      -0.179400
     12 C4           4.2760     0.0020     0.0010 ca         1 J5Y       0.029400
     13 C5           3.5910     0.0020    -1.1990 ca         1 J5Y      -0.153000
     14 N5          -8.3200     2.8050   -12.4200 nb         1 J5Y      -0.707000
     15 C6           2.2030    -0.0050    -1.2030 ca         1 J5Y       0.083600
     16 C7           1.8380    -1.2030    -3.2070 c3         1 J5Y       0.165800
     17 C8           0.9990    -1.2120    -4.4860 c3         1 J5Y       0.163800
     18 C9           0.9270     1.2080    -4.4570 c3         1 J5Y       0.163800
     19 C10          1.7680     1.2170    -3.1780 c3         1 J5Y       0.165800
     20 C11          0.5670     0.0100    -6.4560 ca         1 J5Y       0.157600
     21 C12          0.6830     1.0890    -7.3280 ca         1 J5Y      -0.183000
     22 C13          0.0050     1.0900    -8.5140 ca         1 J5Y      -0.056000
     23 C14         -0.8090     0.0070    -8.8580 ca         1 J5Y      -0.213600
     24 C15         -1.5390     0.0080   -10.1380 c          1 J5Y       0.688700
     25 C16         -2.1500     1.0560   -12.2510 c3         1 J5Y       0.051700
     26 C17         -1.4240     1.9580   -13.2510 c3         1 J5Y      -0.010200
     27 C18         -0.0710     1.3750   -13.5650 cc         1 J5Y      -0.165400
     28 C19          1.0910     1.6930   -12.9760 cd         1 J5Y      -0.086100
     29 C20          1.6110     0.1250   -14.5000 ca         1 J5Y      -0.033200
     30 C21          2.1940    -0.8090   -15.3490 ca         1 J5Y      -0.140000
     31 C22          1.4090    -1.5020   -16.2460 ca         1 J5Y      -0.105000
     32 C23          0.0410    -1.2760   -16.3110 ca         1 J5Y      -0.150000
     33 C24         -0.5520    -0.3630   -15.4860 ca         1 J5Y      -0.082000
     34 C25          0.2230     0.3500   -14.5710 ca         1 J5Y      -0.096800
     35 C26         -3.5480     1.5720   -12.0310 c          1 J5Y       0.644100
     36 C27         -5.7270     2.0490   -12.8490 ca         1 J5Y       0.091600
     37 C28         -6.0470     2.9820   -11.8640 ca         1 J5Y      -0.273300
     38 C29         -7.3670     3.3370   -11.6800 ca         1 J5Y       0.433700
     39 C30         -8.0590     1.9170   -13.3610 ca         1 J5Y       0.433700
     40 C31         -6.7640     1.5100   -13.6080 ca         1 J5Y      -0.273300
     41 C32         -0.9270    -1.0810    -7.9830 ca         1 J5Y       0.228900
     42 C33         -0.2350    -1.0770    -6.7890 ca         1 J5Y      -0.245000
     43 H           -0.3610    -0.0800     1.0180 hc         1 J5Y       0.047367
     44 HA          -0.3610    -0.8420    -0.5790 hc         1 J5Y       0.047367
     45 HB          -0.3610     0.9220    -0.4400 hc         1 J5Y       0.047367
     46 H2           1.6560    -0.0010     2.1330 ha         1 J5Y       0.141000
     47 HN2         -0.8770     1.8500   -10.7140 hn         1 J5Y       0.315500
     48 H3           4.1200     0.0010     2.1370 ha         1 J5Y       0.145000
     49 HN3          3.0700     1.0150   -13.2500 hn         1 J5Y       0.299700
     50 HN4         -4.0960     1.4390   -13.9930 hn         1 J5Y       0.326500
     51 H5           4.1360    -0.0520    -2.1340 ha         1 J5Y       0.147000
     52 H7           2.8900    -1.1800    -3.4670 h1         1 J5Y       0.050950
     53 H7A          1.6220    -2.0920    -2.6280 h1         1 J5Y       0.050950
     54 H8          -0.0520    -1.2580    -4.2270 h1         1 J5Y       0.055200
     55 H8A          1.2660    -2.0730    -5.0860 h1         1 J5Y       0.055200
     56 H9          -0.1240     1.1850    -4.1970 h1         1 J5Y       0.055200
     57 H9A          1.1430     2.0980    -5.0360 h1         1 J5Y       0.055200
     58 H10          2.8190     1.2620    -3.4380 h1         1 J5Y       0.050950
     59 H10A         1.5020     2.0780    -2.5780 h1         1 J5Y       0.050950
     60 H12          1.3120     1.9310    -7.0650 ha         1 J5Y       0.141000
     61 H13          0.0980     1.9320    -9.1890 ha         1 J5Y       0.128000
     62 H16         -2.1960     0.0470   -12.6420 h1         1 J5Y       0.109700
     63 H17         -1.3010     2.9460   -12.8230 hc         1 J5Y       0.055200
     64 H17A        -2.0070     2.0300   -14.1620 hc         1 J5Y       0.055200
     65 H19          1.2090     2.4260   -12.1870 h4         1 J5Y       0.160000
     66 H21          3.2610    -0.9930   -15.3060 ha         1 J5Y       0.128000
     67 H22          1.8650    -2.2300   -16.9070 ha         1 J5Y       0.133000
     68 H23         -0.5610    -1.8300   -17.0220 ha         1 J5Y       0.131000
     69 H24         -1.6200    -0.1920   -15.5430 ha         1 J5Y       0.123000
     70 H28         -5.2690     3.4230   -11.2520 ha         1 J5Y       0.152000
     71 H29         -7.6240     4.0620   -10.9170 h4         1 J5Y       0.024100
     72 H30         -8.8710     1.5040   -13.9470 h4         1 J5Y       0.024100
     73 H31         -6.5570     0.7810   -14.3820 ha         1 J5Y       0.152000
     74 H33         -0.2630    -1.9470    -6.1440 ha         1 J5Y       0.158000
     75 N4          -4.4050     1.6630   -13.0680 ns         1 J5Y      -0.478100
     76 O1          -3.9030     1.9070   -10.9210 o          1 J5Y      -0.575100
@<TRIPOS>BOND
     1     1     6 1
     2     2    41 1
     3     3    15 1
     4     3    16 1
     5     3    19 1
     6     4    24 2
     7     5    12 1
     8     6     8 ar
     9     6    15 ar
    10     7    17 1
    11     7    18 1
    12     7    20 1
    13    76    35 2
    14     8    10 ar
    15     9    24 1
    16     9    25 1
    17    10    12 ar
    18    11    28 1
    19    11    29 1
    20    12    13 ar
    21    75    35 1
    22    75    36 1
    23    13    15 ar
    24    14    38 ar
    25    14    39 ar
    26    16    17 1
    27    18    19 1
    28    20    21 ar
    29    20    42 ar
    30    21    22 ar
    31    22    23 ar
    32    23    24 1
    33    23    41 ar
    34    25    26 1
    35    25    35 1
    36    26    27 1
    37    27    28 2
    38    27    34 1
    39    29    30 ar
    40    29    34 ar
    41    30    31 ar
    42    31    32 ar
    43    32    33 ar
    44    33    34 ar
    45    36    37 ar
    46    36    40 ar
    47    37    38 ar
    48    39    40 ar
    49    41    42 ar
    50     1    43 1
    51     1    44 1
    52     1    45 1
    53     8    46 1
    54     9    47 1
    55    10    48 1
    56    11    49 1
    57    75    50 1
    58    13    51 1
    59    16    52 1
    60    16    53 1
    61    17    54 1
    62    17    55 1
    63    18    56 1
    64    18    57 1
    65    19    58 1
    66    19    59 1
    67    21    60 1
    68    22    61 1
    69    25    62 1
    70    26    63 1
    71    26    64 1
    72    28    65 1
    73    30    66 1
    74    31    67 1
    75    32    68 1
    76    33    69 1
    77    37    70 1
    78    38    71 1
    79    39    72 1
    80    40    73 1
    81    42    74 1
@<TRIPOS>SUBSTRUCTURE
     1 J5Y         1 TEMP              0 ****  ****    0 ROOT
