@<TRIPOS>MOLECULE
molecule
   31    33     1     0     0
SMALL
bcc


@<TRIPOS>ATOM
      1 C1           0.0000     0.0000     0.0000 ca         1 J5Z      -0.180500
      2 N1           2.0900    -0.0010    -1.2090 nu         1 J5Z      -0.682000
      3 C2           1.3900     0.0000     0.0000 ca         1 J5Z       0.209600
      4 N2           4.0440    -1.2480    -0.6530 na         1 J5Z      -0.011800
      5 C3           2.0810     0.0000     1.2050 ca         1 J5Z      -0.180500
      6 N3           3.5360    -2.3860    -0.0150 nc         1 J5Z      -0.608100
      7 C4           1.3850     0.0000     2.3980 ca         1 J5Z      -0.041500
      8 N4           5.6870    -2.5350    -0.0630 nd         1 J5Z      -0.441300
      9 N5           6.1750    -0.4410    -1.2160 nc         1 J5Z      -0.677000
     10 C8          -0.7530     0.0030     3.6990 c3         1 J5Z       0.677200
     11 C9           0.0030     0.0010     2.3950 ca         1 J5Z      -0.218300
     12 C10         -0.6890     0.0060     1.1970 ca         1 J5Z      -0.041500
     13 C11          3.4600    -0.1470    -1.2120 cc         1 J5Z       0.291300
     14 C12          4.2710     0.8180    -1.7810 cd         1 J5Z      -0.338300
     15 C13          5.6510     0.6350    -1.7650 cd         1 J5Z       0.499600
     16 C14          6.5510     1.6770    -2.3790 c3         1 J5Z      -0.145400
     17 C15          5.4030    -1.3830    -0.6620 cc         1 J5Z       0.462500
     18 C16          4.5630    -3.1290     0.3190 cd         1 J5Z       0.590200
     19 F22         -1.9750    -0.6570     3.5300 f          1 J5Z      -0.224967
     20 F23          0.0020    -0.6570     4.6750 f          1 J5Z      -0.224967
     21 F24         -0.9860     1.3220     4.1010 f          1 J5Z      -0.224967
     22 H1          -0.5420     0.0040    -0.9380 ha         1 J5Z       0.141500
     23 HN1          1.5930     0.0800    -2.0750 hn         1 J5Z       0.468800
     24 H3           3.1640    -0.0000     1.2090 ha         1 J5Z       0.141500
     25 H4           1.9240     0.0000     3.3380 ha         1 J5Z       0.150000
     26 H10         -1.7720     0.0060     1.1980 ha         1 J5Z       0.150000
     27 H12          3.8380     1.7030    -2.2320 ha         1 J5Z       0.167000
     28 H14          7.5840     1.3680    -2.2760 hc         1 J5Z       0.064033
     29 H14A         6.3110     1.7870    -3.4300 hc         1 J5Z       0.064033
     30 H14B         6.4050     2.6240    -1.8740 hc         1 J5Z       0.064033
     31 H16          4.5090    -4.0880     0.8180 h5         1 J5Z       0.094800
@<TRIPOS>BOND
     1    12     1 ar
     2     1     3 ar
     3     1    22 1
     4     3     2 1
     5     2    13 1
     6     2    23 1
     7     5     3 ar
     8     6     4 1
     9    13     4 1
    10     4    17 1
    11     7     5 ar
    12     5    24 1
    13     6    18 2
    14    11     7 ar
    15     7    25 1
    16    18     8 1
    17     8    17 2
    18    17     9 1
    19    15     9 2
    20    20    10 1
    21    19    10 1
    22    10    11 1
    23    10    21 1
    24    11    12 ar
    25    12    26 1
    26    13    14 2
    27    14    15 1
    28    14    27 1
    29    15    16 1
    30    16    28 1
    31    16    29 1
    32    16    30 1
    33    18    31 1
@<TRIPOS>SUBSTRUCTURE
     1 J5Z         1 TEMP              0 ****  ****    0 ROOT
