@<TRIPOS>MOLECULE
molecule
   56    58     1     0     0
SMALL
bcc


@<TRIPOS>ATOM
      1 CBA          0.0000     0.0000     0.0000 c3         1 J60      -0.097100
      2 CAZ          1.4910     0.0000     0.0000 c3         1 J60       0.157300
      3 NAX          2.0210     0.0000     1.3720 n3         1 J60      -0.719600
      4 CAY          1.5520     1.2010     2.0790 c3         1 J60       0.157300
      5 CBB          2.0690     1.2390     3.4770 c3         1 J60      -0.097100
      6 CAW          3.4570    -0.0840     1.3780 c3         1 J60       0.137800
      7 CAV          3.9570    -1.3400     0.6830 c3         1 J60       0.110000
      8 NAU          5.3990    -1.4380     0.7060 ns         1 J60      -0.595900
      9 CAS          6.1340    -2.0710     1.7260 c          1 J60       0.710700
     10 OAT          5.5580    -2.6030     2.7030 o          1 J60      -0.620100
     11 CAN          7.5660    -2.0660     1.6180 cc         1 J60      -0.217600
     12 CAM          8.3910    -1.0880     1.0060 cc         1 J60      -0.084300
     13 CAQ          7.9340     0.1510     0.3420 c3         1 J60      -0.025800
     14 CAO          8.3920    -3.0500     2.1120 cd         1 J60      -0.021600
     15 CAR          8.0910    -4.3000     2.8380 c3         1 J60      -0.032800
     16 NAP          9.6850    -2.7000     1.8200 na         1 J60      -0.155100
     17 CAL          9.6690    -1.5170     1.1540 cd         1 J60      -0.107100
     18 CAK         10.9380    -0.9800     0.7590 cf         1 J60      -0.001200
     19 CAG         11.5260    -1.2070    -0.4170 cc         1 J60      -0.123400
     20 CAE         12.8060    -0.7070    -0.9050 ca         1 J60      -0.110800
     21 CAD         13.7800     0.1100    -0.3600 ca         1 J60      -0.057000
     22 CAA         14.9110     0.3850    -1.1350 ca         1 J60      -0.015600
     23 Cl          16.1510     1.3990    -0.4980 cl         1 J60      -0.096400
     24 CAB         15.0530    -0.1530    -2.4280 ca         1 J60      -0.078000
     25 CAC         14.0650    -0.9770    -2.9720 ca         1 J60      -0.161000
     26 CAF         12.9570    -1.2370    -2.1900 ca         1 J60       0.078600
     27 NAH         11.8540    -2.0290    -2.5280 ns         1 J60      -0.489100
     28 CAI         10.9180    -2.0660    -1.4880 c          1 J60       0.710700
     29 OAJ          9.8530    -2.6520    -1.4370 o          1 J60      -0.561500
     30 HBA1        -0.3610     1.0190     0.0690 hc         1 J60       0.040367
     31 HBA2        -0.3610    -0.5690     0.8480 hc         1 J60       0.040367
     32 HBA3        -0.3610    -0.4500    -0.9170 hc         1 J60       0.040367
     33 HAZ1         1.8460    -0.8830    -0.5180 h1         1 J60       0.030700
     34 HAZ2         1.8460     0.8830    -0.5180 h1         1 J60       0.030700
     35 HAY1         1.8960     2.0820     1.5500 h1         1 J60       0.030700
     36 HAY2         0.4690     1.2000     2.1010 h1         1 J60       0.030700
     37 HAW1         3.8620     0.7830     0.8720 h1         1 J60       0.036700
     38 HAW2         3.8050    -0.0880     2.4040 h1         1 J60       0.036700
     39 HBB1         3.0640     1.6670     3.4830 hc         1 J60       0.040367
     40 HBB2         1.4120     1.8440     4.0890 hc         1 J60       0.040367
     41 HBB3         2.1070     0.2320     3.8750 hc         1 J60       0.040367
     42 HAV1         3.5380    -2.2070     1.1800 h1         1 J60       0.057200
     43 HAV2         3.6220    -1.3280    -0.3470 h1         1 J60       0.057200
     44 HAU          5.9070    -1.0310    -0.0540 hn         1 J60       0.312500
     45 HAQ1         7.1590     0.6160     0.9390 hc         1 J60       0.044367
     46 HAQ2         7.5390    -0.0900    -0.6380 hc         1 J60       0.044367
     47 HAQ3         8.7690     0.8330     0.2370 hc         1 J60       0.044367
     48 HAR1         7.4010    -4.8980     2.2560 hc         1 J60       0.058033
     49 HAR2         7.6440    -4.0620     3.7960 hc         1 J60       0.058033
     50 HAR3         9.0070    -4.8560     2.9950 hc         1 J60       0.058033
     51 HAP         10.5020    -3.2270     2.0570 hn         1 J60       0.303700
     52 HAK         11.4500    -0.3450     1.4720 ha         1 J60       0.137000
     53 HAD         13.7950     0.2980     0.7060 ha         1 J60       0.152000
     54 HAB         15.9390     0.0750    -3.0090 ha         1 J60       0.150000
     55 HAC         14.1650    -1.3960    -3.9660 ha         1 J60       0.148000
     56 HAH         11.7480    -2.5070    -3.4010 hn         1 J60       0.340500
@<TRIPOS>BOND
     1     1     2 1
     2     2     3 1
     3     3     4 1
     4     4     5 1
     5     3     6 1
     6     6     7 1
     7     7     8 1
     8     8     9 1
     9     9    10 2
    10     9    11 1
    11    11    12 1
    12    12    13 1
    13    11    14 2
    14    14    15 1
    15    14    16 1
    16    12    17 2
    17    16    17 1
    18    17    18 1
    19    18    19 2
    20    19    20 1
    21    20    21 ar
    22    21    22 ar
    23    22    23 1
    24    22    24 ar
    25    24    25 ar
    26    20    26 ar
    27    25    26 ar
    28    26    27 1
    29    19    28 1
    30    27    28 1
    31    28    29 2
    32     1    30 1
    33     1    31 1
    34     1    32 1
    35     2    33 1
    36     2    34 1
    37     4    35 1
    38     4    36 1
    39     6    37 1
    40     6    38 1
    41     5    39 1
    42     5    40 1
    43     5    41 1
    44     7    42 1
    45     7    43 1
    46     8    44 1
    47    13    45 1
    48    13    46 1
    49    13    47 1
    50    15    48 1
    51    15    49 1
    52    15    50 1
    53    16    51 1
    54    18    52 1
    55    21    53 1
    56    24    54 1
    57    25    55 1
    58    27    56 1
@<TRIPOS>SUBSTRUCTURE
     1 J60         1 TEMP              0 ****  ****    0 ROOT
