@<TRIPOS>MOLECULE
J60
   56    58     1     0     0
SMALL
bcc


@<TRIPOS>ATOM
      1 CBA          0.0000     0.0000     0.0000 c3         1 J60      -0.006100
      2 CAZ          1.4910     0.0000     0.0000 c3         1 J60       0.139800
      3 NAX          2.0210     0.0000     1.3720 n3         1 J60      -0.522600
      4 CAY          1.5520     1.2010     2.0790 c3         1 J60       0.139800
      5 CBB          2.0690     1.2390     3.4770 c3         1 J60      -0.006100
      6 CAW          3.4570    -0.0840     1.3780 c3         1 J60       0.118800
      7 CAV          3.9570    -1.3400     0.6830 c3         1 J60       0.041000
      8 NAU          5.3990    -1.4380     0.7060 ns         1 J60      -0.229900
      9 CAS          6.1340    -2.0710     1.7260 c          1 J60       0.651700
     10 OAT          5.5580    -2.6030     2.7030 o          1 J60      -0.658100
     11 CAN          7.5660    -2.0660     1.6180 cc         1 J60      -0.224600
     12 CAM          8.3910    -1.0880     1.0060 cc         1 J60      -0.080300
     13 CAQ          7.9340     0.1510     0.3420 c3         1 J60       0.085200
     14 CAO          8.3920    -3.0500     2.1120 cd         1 J60      -0.226600
     15 CAR          8.0910    -4.3000     2.8380 c3         1 J60       0.090200
     16 NAP          9.6850    -2.7000     1.8200 na         1 J60       0.401900
     17 CAL          9.6690    -1.5170     1.1540 cd         1 J60      -0.305100
     18 CAK         10.9380    -0.9800     0.7590 cf         1 J60       0.058800
     19 CAG         11.5260    -1.2070    -0.4170 cc         1 J60      -0.149400
     20 CAE         12.8060    -0.7070    -0.9050 ca         1 J60      -0.099800
     21 CAD         13.7800     0.1100    -0.3600 ca         1 J60      -0.030000
     22 CAA         14.9110     0.3850    -1.1350 ca         1 J60      -0.075600
     23 Cl          16.1510     1.3990    -0.4980 cl         1 J60      -0.015400
     24 CAB         15.0530    -0.1530    -2.4280 ca         1 J60      -0.056000
     25 CAC         14.0650    -0.9770    -2.9720 ca         1 J60      -0.124000
     26 CAF         12.9570    -1.2370    -2.1900 ca         1 J60      -0.073400
     27 NAH         11.8540    -2.0290    -2.5280 ns         1 J60      -0.058100
     28 CAI         10.9180    -2.0660    -1.4880 c          1 J60       0.632700
     29 OAJ          9.8530    -2.6520    -1.4370 o          1 J60      -0.607500
     30 HBA1        -0.3610     1.0190     0.0630 hc         1 J60       0.008700
     31 HBA2        -0.3610    -0.5650     0.8510 hc         1 J60       0.008700
     32 HBA3        -0.3610    -0.4550    -0.9150 hc         1 J60       0.008700
     33 HAZ1         1.8460    -0.8830    -0.5180 h1         1 J60       0.008700
     34 HAZ2         1.8460     0.8830    -0.5180 h1         1 J60       0.008700
     35 HAY1         1.8960     2.0820     1.5500 h1         1 J60       0.008700
     36 HAY2         0.4690     1.2000     2.1010 h1         1 J60       0.008700
     37 HAW1         3.8050    -0.0880     2.4040 h1         1 J60       0.015700
     38 HAW2         3.8620     0.7830     0.8720 h1         1 J60       0.015700
     39 HBB1         2.0860     0.2340     3.8830 hc         1 J60       0.008700
     40 HBB2         3.0720     1.6470     3.4800 hc         1 J60       0.008700
     41 HBB3         1.4240     1.8620     4.0840 hc         1 J60       0.008700
     42 HAV1         3.6220    -1.3280    -0.3470 h1         1 J60       0.031200
     43 HAV2         3.5380    -2.2070     1.1800 h1         1 J60       0.031200
     44 HAU          5.9070    -1.0300    -0.0540 hn         1 J60       0.179500
     45 HAQ1         8.7630     0.8430     0.2580 hc         1 J60       0.008367
     46 HAQ2         7.5610    -0.0870    -0.6470 hc         1 J60       0.008367
     47 HAQ3         7.1430     0.6040     0.9270 hc         1 J60       0.008367
     48 HAR1         7.3550    -4.8700     2.2850 hc         1 J60       0.016367
     49 HAR2         7.7000    -4.0620     3.8200 hc         1 J60       0.016367
     50 HAR3         8.9970    -4.8840     2.9420 hc         1 J60       0.016367
     51 HAP         10.5020    -3.2270     2.0570 hn         1 J60       0.117700
     52 HAK         11.4510    -0.3460     1.4720 ha         1 J60       0.101000
     53 HAD         13.7950     0.2970     0.7070 ha         1 J60       0.119000
     54 HAB         15.9390     0.0750    -3.0090 ha         1 J60       0.115000
     55 HAC         14.1650    -1.3960    -3.9660 ha         1 J60       0.118000
     56 HAH         11.7480    -2.5070    -3.4010 hn         1 J60       0.182500
@<TRIPOS>BOND
     1     1     2 1   
     2     1    30 1   
     3     1    31 1   
     4     1    32 1   
     5     2     3 1   
     6     2    33 1   
     7     2    34 1   
     8     3     4 1   
     9     3     6 1   
    10     4     5 1   
    11     4    35 1   
    12     4    36 1   
    13     5    39 1   
    14     5    40 1   
    15     5    41 1   
    16     6     7 1   
    17     6    37 1   
    18     6    38 1   
    19     7     8 1   
    20     7    42 1   
    21     7    43 1   
    22     8     9 1   
    23     8    44 1   
    24     9    10 2   
    25     9    11 1   
    26    11    12 1   
    27    11    14 2   
    28    12    13 1   
    29    12    17 2   
    30    13    45 1   
    31    13    46 1   
    32    13    47 1   
    33    14    15 1   
    34    14    16 1   
    35    15    48 1   
    36    15    49 1   
    37    15    50 1   
    38    16    17 1   
    39    16    51 1   
    40    17    18 1   
    41    18    19 2   
    42    18    52 1   
    43    19    20 1   
    44    19    28 1   
    45    20    21 ar  
    46    20    26 ar  
    47    21    22 ar  
    48    21    53 1   
    49    22    23 1   
    50    22    24 ar  
    51    24    25 ar  
    52    24    54 1   
    53    25    26 ar  
    54    25    55 1   
    55    26    27 1   
    56    27    28 1   
    57    27    56 1   
    58    28    29 2   
@<TRIPOS>SUBSTRUCTURE
     1 J60         1 TEMP              0 ****  ****    0 ROOT
