@<TRIPOS>MOLECULE
J63
   58    60     1     0     0
SMALL
bcc


@<TRIPOS>ATOM
      1 O01          0.0000     0.0000     0.0000 o          1 J63      -0.642500
      2 C02          1.2180     0.0000     0.0000 c          1 J63       0.620700
      3 C03          1.9320     0.0000     1.2230 cc         1 J63      -0.278400
      4 C04          1.1950    -0.0010     2.5380 c3         1 J63       0.023500
      5 C05          0.1940     1.1560     2.5620 c3         1 J63      -0.002600
      6 C06          0.4480    -1.3250     2.7030 c3         1 J63      -0.002600
      7 C07          3.2820     0.0000     1.1950 cd         1 J63      -0.052600
      8 C08          4.0650    -0.0010     2.4820 c3         1 J63      -0.007200
      9 C09          4.5090     1.4260     2.8100 c3         1 J63      -0.049700
     10 C10          3.2800     2.2880     3.1050 c3         1 J63      -0.035900
     11 C11          3.7240     3.7150     3.4320 c3         1 J63      -0.021900
     12 C12          4.6390     3.6960     4.6580 c3         1 J63      -0.026400
     13 C13          5.8680     2.8340     4.3640 c3         1 J63      -0.021900
     14 C14          5.4250     1.4070     4.0360 c3         1 J63      -0.035900
     15 N15          3.9340     0.0000    -0.0070 n          1 J63       0.014000
     16 C16          5.3990    -0.0000    -0.0380 c3         1 J63       0.234800
     17 O17          5.8820    -1.3130     0.2520 os         1 J63      -0.409600
     18 C18          5.7930    -2.2210    -0.8470 c3         1 J63       0.262700
     19 C19          6.2170    -3.5960    -0.4000 ca         1 J63      -0.111300
     20 C20          7.5440    -3.9730    -0.4890 ca         1 J63      -0.077500
     21 C21          7.9340    -5.2340    -0.0790 ca         1 J63      -0.104500
     22 C22          6.9970    -6.1180     0.4210 ca         1 J63      -0.091000
     23 C23          5.6690    -5.7410     0.5110 ca         1 J63      -0.104500
     24 C24          5.2800    -4.4780     0.1050 ca         1 J63      -0.077500
     25 C25          3.2450     0.0010    -1.1620 c          1 J63       0.590500
     26 N26          1.8990    -0.0060    -1.1630 n          1 J63       0.050100
     27 O27          1.1950    -0.0040    -2.3920 oh         1 J63      -0.406100
     28 O28          3.8450     0.0020    -2.2190 o          1 J63      -0.697500
     29 H041         1.9030     0.1180     3.3490 hc         1 J63       0.039700
     30 H051         0.1150     1.5450     3.5700 hc         1 J63       0.010867
     31 H052        -0.7760     0.8010     2.2350 hc         1 J63       0.010867
     32 H053         0.5330     1.9410     1.8970 hc         1 J63       0.010867
     33 H061         0.1630    -1.4520     3.7410 hc         1 J63       0.010867
     34 H063        -0.4400    -1.3190     2.0830 hc         1 J63       0.010867
     35 H062         1.0920    -2.1430     2.4030 hc         1 J63       0.010867
     36 H082         3.4430    -0.3790     3.2840 hc         1 J63       0.052200
     37 H081         4.9380    -0.6340     2.3730 hc         1 J63       0.052200
     38 H091         5.0460     1.8450     1.9680 hc         1 J63       0.029700
     39 H101         2.7440     1.8750     3.9510 hc         1 J63       0.023950
     40 H102         2.6340     2.3040     2.2350 hc         1 J63       0.023950
     41 H112         4.2630     4.1270     2.5870 hc         1 J63       0.014950
     42 H111         2.8530     4.3240     3.6430 hc         1 J63       0.014950
     43 H122         4.1010     3.2800     5.5020 hc         1 J63       0.015200
     44 H121         4.9550     4.7070     4.8870 hc         1 J63       0.015200
     45 H131         6.5130     2.8190     5.2340 hc         1 J63       0.014950
     46 H132         6.4030     3.2480     3.5180 hc         1 J63       0.014950
     47 H142         4.8880     0.9940     4.8810 hc         1 J63       0.023950
     48 H141         6.2970     0.8000     3.8240 hc         1 J63       0.023950
     49 H162         5.7760     0.6950     0.7030 h2         1 J63       0.051700
     50 H161         5.7400     0.3010    -1.0210 h2         1 J63       0.051700
     51 H181         6.4420    -1.8850    -1.6460 h1         1 J63       0.005200
     52 H182         4.7700    -2.2570    -1.2040 h1         1 J63       0.005200
     53 H201         8.2780    -3.2800    -0.8810 ha         1 J63       0.105000
     54 H211         8.9740    -5.5300    -0.1490 ha         1 J63       0.104000
     55 H221         7.3010    -7.1070     0.7410 ha         1 J63       0.103000
     56 H231         4.9340    -6.4330     0.9050 ha         1 J63       0.104000
     57 H241         4.2400    -4.1820     0.1750 ha         1 J63       0.105000
     58 H271         0.9870    -0.8910    -2.6360 ho         1 J63       0.405000
@<TRIPOS>BOND
     1     1     2 2   
     2     2     3 1   
     3     2    26 1   
     4     3     4 1   
     5     3     7 2   
     6     4     5 1   
     7     4     6 1   
     8     4    29 1   
     9     5    30 1   
    10     5    31 1   
    11     5    32 1   
    12     6    33 1   
    13     6    34 1   
    14     6    35 1   
    15     7     8 1   
    16     7    15 1   
    17     8     9 1   
    18     8    36 1   
    19     8    37 1   
    20     9    10 1   
    21     9    14 1   
    22     9    38 1   
    23    10    11 1   
    24    10    39 1   
    25    10    40 1   
    26    11    12 1   
    27    11    41 1   
    28    11    42 1   
    29    12    13 1   
    30    12    43 1   
    31    12    44 1   
    32    13    14 1   
    33    13    45 1   
    34    13    46 1   
    35    14    47 1   
    36    14    48 1   
    37    15    16 1   
    38    15    25 1   
    39    16    17 1   
    40    16    49 1   
    41    16    50 1   
    42    17    18 1   
    43    18    19 1   
    44    18    51 1   
    45    18    52 1   
    46    19    20 ar  
    47    19    24 ar  
    48    20    21 ar  
    49    20    53 1   
    50    21    22 ar  
    51    21    54 1   
    52    22    23 ar  
    53    22    55 1   
    54    23    24 ar  
    55    23    56 1   
    56    24    57 1   
    57    25    26 1   
    58    25    28 2   
    59    26    27 1   
    60    27    58 1   
@<TRIPOS>SUBSTRUCTURE
     1 J63         1 TEMP              0 ****  ****    0 ROOT
