@<TRIPOS>MOLECULE
molecule
   51    55     1     0     0
SMALL
bcc


@<TRIPOS>ATOM
      1 O1           0.0000     0.0000     0.0000 oh         1 J67      -0.351500
      2 N2           1.4160     0.0000     0.0000 n2         1 J67      -0.376200
      3 C3           2.0680     0.0000     1.1290 cc         1 J67       0.389900
      4 C4           1.5010     0.0010     2.5020 c          1 J67       0.600200
      5 O5           0.3210     0.0010     2.7910 o          1 J67      -0.572500
      6 N6           2.5290     0.0010     3.3680 n          1 J67      -0.366000
      7 C7           2.3800     0.0010     4.8250 c3         1 J67       0.171300
      8 C8           2.3290    -1.4190     5.3250 ca         1 J67      -0.122300
      9 C9           1.1140    -2.0000     5.6290 ca         1 J67      -0.107000
     10 C10          1.0660    -3.3050     6.0890 ca         1 J67       0.103900
     11 F11         -0.1240    -3.8740     6.3850 f          1 J67      -0.136900
     12 C12          2.2360    -4.0290     6.2440 ca         1 J67      -0.120000
     13 C13          3.4540    -3.4500     5.9400 ca         1 J67      -0.180300
     14 C14          4.7220    -4.2460     6.1170 c3         1 J67       0.187700
     15 O15          5.7860    -3.6030     5.4090 os         1 J67      -0.424600
     16 C16          5.8720    -2.1980     5.6810 c3         1 J67       0.336200
     17 O17          4.6950    -1.5640     5.1730 os         1 J67      -0.350900
     18 C18          3.5030    -2.1460     5.4740 ca         1 J67       0.149100
     19 C19          3.7540     0.0000     2.7050 ca         1 J67       0.085600
     20 C20          5.0600     0.0000     3.1840 ca         1 J67      -0.149000
     21 C21          6.1290     0.0000     2.3070 ca         1 J67      -0.086000
     22 C22          5.9240    -0.0000     0.9420 ca         1 J67      -0.158000
     23 C23          4.6210    -0.0010     0.4340 ca         1 J67       0.023200
     24 C24          4.3920    -0.0010    -1.0190 ce         1 J67      -0.118200
     25 C25          5.4370    -0.0020    -1.8650 cf         1 J67      -0.099200
     26 C26          5.2070    -0.0030    -3.3200 ca         1 J67      -0.060800
     27 C27          6.2910    -0.0030    -4.2020 ca         1 J67      -0.116000
     28 C28          6.0680    -0.0050    -5.5630 ca         1 J67      -0.128500
     29 C29          4.7750    -0.0060    -6.0560 ca         1 J67      -0.124000
     30 C30          3.6960    -0.0050    -5.1880 ca         1 J67      -0.128500
     31 C31          3.9030    -0.0090    -3.8240 ca         1 J67      -0.116000
     32 C32          3.5350    -0.0060     1.3230 ca         1 J67      -0.183900
     33 HO1         -0.3140     0.0010    -0.8890 ho         1 J67       0.428000
     34 H7           1.4640     0.5120     5.0940 h1         1 J67       0.074200
     35 H7A          3.2240     0.5120     5.2740 h1         1 J67       0.074200
     36 H9           0.2010    -1.4250     5.5390 ha         1 J67       0.164000
     37 H12          2.1970    -5.0510     6.6040 ha         1 J67       0.149000
     38 H14          4.5780    -5.2440     5.7210 h1         1 J67       0.065700
     39 H14A         4.9700    -4.3000     7.1700 h1         1 J67       0.065700
     40 H16          6.7380    -1.7940     5.1710 h2         1 J67       0.069200
     41 H16A         5.9180    -2.0490     6.7530 h2         1 J67       0.069200
     42 H20          5.2410     0.0010     4.2520 ha         1 J67       0.153000
     43 H21          7.1400     0.0010     2.6960 ha         1 J67       0.132000
     44 H22          6.7710    -0.0000     0.2660 ha         1 J67       0.140000
     45 H24          3.3800    -0.0010    -1.4070 ha         1 J67       0.155000
     46 H25          6.4480    -0.0020    -1.4760 ha         1 J67       0.131000
     47 H27          7.3040    -0.0020    -3.8180 ha         1 J67       0.134000
     48 H28          6.9080    -0.0050    -6.2480 ha         1 J67       0.130000
     49 H29          4.6060    -0.0050    -7.1260 ha         1 J67       0.129000
     50 H30          2.6870    -0.0080    -5.5820 ha         1 J67       0.130000
     51 H31          3.0580    -0.0080    -3.1470 ha         1 J67       0.134000
@<TRIPOS>BOND
     1     2     1 1
     2     1    33 1
     3     3     2 2
     4     4     3 1
     5    32     3 1
     6     6     4 1
     7     5     4 2
     8     7     6 1
     9     6    19 1
    10     7     8 1
    11     7    34 1
    12     7    35 1
    13    18     8 ar
    14     8     9 ar
    15     9    10 ar
    16     9    36 1
    17    12    10 ar
    18    10    11 1
    19    13    12 ar
    20    12    37 1
    21    18    13 ar
    22    14    13 1
    23    15    14 1
    24    14    38 1
    25    14    39 1
    26    16    15 1
    27    16    17 1
    28    16    40 1
    29    16    41 1
    30    17    18 1
    31    20    19 ar
    32    19    32 ar
    33    20    21 ar
    34    20    42 1
    35    21    22 ar
    36    21    43 1
    37    22    23 ar
    38    22    44 1
    39    32    23 ar
    40    23    24 1
    41    24    25 2
    42    24    45 1
    43    25    26 1
    44    25    46 1
    45    31    26 ar
    46    26    27 ar
    47    27    28 ar
    48    27    47 1
    49    29    28 ar
    50    28    48 1
    51    30    29 ar
    52    29    49 1
    53    31    30 ar
    54    30    50 1
    55    31    51 1
@<TRIPOS>SUBSTRUCTURE
     1 J67         1 TEMP              0 ****  ****    0 ROOT
