@<TRIPOS>MOLECULE
J67
   51    57     1     0     0
SMALL
bcc


@<TRIPOS>ATOM
      1 O1           0.0000     0.0000     0.0000 oh         1 J67      -0.231000
      2 N2           1.4160     0.0000     0.0000 n2         1 J67       0.064000
      3 C3           2.0680     0.0000     1.1290 c2         1 J67      -0.079000
      4 C4           1.5010     0.0010     2.5020 c2         1 J67       0.250000
      5 O5           0.3210     0.0010     2.7910 o          1 J67      -0.347000
      6 N6           2.5290     0.0010     3.3680 n          1 J67       0.123000
      7 C7           2.3800     0.0010     4.8250 c3         1 J67      -0.010000
      8 C8           2.3290    -1.4190     5.3250 ca         1 J67      -0.135000
      9 C9           1.1140    -2.0000     5.6290 ca         1 J67      -0.069000
     10 C10          1.0660    -3.3050     6.0890 ca         1 J67       0.038000
     11 F11         -0.1240    -3.8740     6.3850 f          1 J67      -0.090000
     12 C12          2.2360    -4.0290     6.2440 ca         1 J67      -0.080000
     13 C13          3.4540    -3.4500     5.9400 ca         1 J67      -0.190000
     14 C14          4.7220    -4.2460     6.1170 c3         1 J67       0.128000
     15 O15          5.7860    -3.6030     5.4090 os         1 J67      -0.276000
     16 C16          5.8720    -2.1980     5.6810 c3         1 J67       0.208000
     17 O17          4.6950    -1.5640     5.1730 os         1 J67      -0.213000
     18 C18          3.5030    -2.1460     5.4740 ca         1 J67       0.125000
     19 C19          3.7540     0.0000     2.7050 c2         1 J67      -0.012000
     20 C20          5.0600     0.0000     3.1840 c2         1 J67      -0.183000
     21 C21          6.1290     0.0000     2.3070 c2         1 J67      -0.017000
     22 C22          5.9240    -0.0000     0.9420 c2         1 J67      -0.210000
     23 C23          4.6210    -0.0010     0.4340 c3         1 J67       0.132000
     24 C24          4.3920    -0.0010    -1.0190 c2         1 J67       0.003000
     25 C25          5.4370    -0.0020    -1.8650 c2         1 J67      -0.066000
     26 C26          5.2070    -0.0030    -3.3200 c3         1 J67       0.034000
     27 C27          6.2910    -0.0030    -4.2020 c2         1 J67      -0.168500
     28 C28          6.0680    -0.0050    -5.5630 c2         1 J67      -0.061500
     29 C29          4.7750    -0.0060    -6.0560 c2         1 J67      -0.144000
     30 C30          3.6960    -0.0050    -5.1880 c2         1 J67      -0.061500
     31 C31          3.9030    -0.0090    -3.8240 c2         1 J67      -0.168500
     32 C32          3.5350    -0.0060     1.3230 c2         1 J67      -0.197000
     33 HO1         -0.3140    -0.0190    -0.8890 ho         1 J67       0.211000
     34 H7           3.2240     0.5120     5.2740 h1         1 J67       0.081000
     35 H7A          1.4640     0.5120     5.0940 h1         1 J67       0.081000
     36 H9           0.2010    -1.4250     5.5390 ha         1 J67       0.135000
     37 H12          2.1970    -5.0510     6.6040 ha         1 J67       0.121000
     38 H14          4.9700    -4.3000     7.1700 h1         1 J67       0.059500
     39 H14A         4.5780    -5.2440     5.7210 h1         1 J67       0.059500
     40 H16          6.7380    -1.7940     5.1710 h2         1 J67       0.054500
     41 H16A         5.9180    -2.0490     6.7530 h2         1 J67       0.054500
     42 H20          5.2410     0.0010     4.2520 ha         1 J67       0.134000
     43 H21          7.1400     0.0010     2.6960 ha         1 J67       0.100000
     44 H22          6.7710    -0.0000     0.2660 ha         1 J67       0.127000
     45 H24          4.6700     0.8740    -0.4440 DU         1 J67       0.056000
     46 H25          5.1600     0.8720    -2.4410 DU         1 J67       0.081000
     47 H27          7.3040    -0.0020    -3.8180 ha         1 J67       0.120500
     48 H28          6.9080    -0.0050    -6.2480 ha         1 J67       0.102000
     49 H29          4.6060    -0.0050    -7.1260 ha         1 J67       0.105000
     50 H30          2.6870    -0.0080    -5.5820 ha         1 J67       0.102000
     51 H31          3.0580    -0.0080    -3.1470 ha         1 J67       0.120500
@<TRIPOS>BOND
     1     1     2 1   
     2     1    33 1   
     3     2     3 1   
     4     3     4 1   
     5     3    32 1   
     6     4     5 1   
     7     4     6 1   
     8     6     7 1   
     9     6    19 1   
    10     7     8 1   
    11     7    34 1   
    12     7    35 1   
    13     8     9 1   
    14     8    18 1   
    15     9    10 1   
    16     9    36 1   
    17    10    11 1   
    18    10    12 1   
    19    12    13 1   
    20    12    37 1   
    21    13    14 1   
    22    13    18 1   
    23    14    15 1   
    24    14    38 1   
    25    14    39 1   
    26    15    16 1   
    27    16    17 1   
    28    16    40 1   
    29    16    41 1   
    30    17    18 1   
    31    19    20 1   
    32    19    32 1   
    33    20    21 1   
    34    20    42 1   
    35    21    22 1   
    36    21    43 1   
    37    22    23 1   
    38    22    44 1   
    39    23    24 1   
    40    23    32 1   
    41    23    45 1   
    42    24    25 1   
    43    24    45 1   
    44    25    26 1   
    45    25    46 1   
    46    26    27 1   
    47    26    31 1   
    48    26    46 1   
    49    27    28 1   
    50    27    47 1   
    51    28    29 1   
    52    28    48 1   
    53    29    30 1   
    54    29    49 1   
    55    30    31 1   
    56    30    50 1   
    57    31    51 1   
@<TRIPOS>SUBSTRUCTURE
     1 J67         1 TEMP              0 ****  ****    0 ROOT
