@<TRIPOS>MOLECULE
J6A
   53    55     1     0     0
SMALL
bcc


@<TRIPOS>ATOM
      1 CAP          0.0000     0.0000     0.0000 c3         1 J6A      -0.035900
      2 CAN          1.5290     0.0000     0.0000 c3         1 J6A      -0.019900
      3 CAM          2.0400     0.0000     1.4420 c3         1 J6A      -0.027400
      4 CAO          1.5290     1.2490     2.1630 c3         1 J6A      -0.019900
      5 CAQ         -0.0010     1.2490     2.1630 c3         1 J6A      -0.035900
      6 CBC         -0.5110     1.2490     0.7210 c3         1 J6A      -0.032700
      7 CAR         -2.0410     1.2490     0.7210 c3         1 J6A      -0.093400
      8 CAU         -2.5430     1.3730    -0.6950 c          1 J6A       0.587100
      9 OAA         -1.7550     1.4530    -1.6130 o          1 J6A      -0.646100
     10 N           -3.8680     1.3940    -0.9400 ns         1 J6A      -0.175900
     11 CA          -4.3560     1.5150    -2.3160 c3         1 J6A       0.014000
     12 C           -4.4070     0.1500    -2.9530 c          1 J6A       0.561100
     13 O           -4.0680    -0.8280    -2.3200 o          1 J6A      -0.607100
     14 NAS         -4.8280     0.0160    -4.2260 ns         1 J6A      -0.049400
     15 OAC         -4.8750    -1.2670    -4.8240 oh         1 J6A      -0.436100
     16 CBA         -5.7370     2.1170    -2.3090 ca         1 J6A      -0.111300
     17 CAJ         -6.6480     1.7400    -1.3380 ca         1 J6A      -0.089000
     18 CAH         -7.9140     2.2880    -1.3260 ca         1 J6A      -0.084000
     19 CAI         -6.0890     3.0480    -3.2690 ca         1 J6A      -0.089000
     20 CAG         -7.3530     3.6020    -3.2660 ca         1 J6A      -0.084000
     21 CAY         -8.2750     3.2220    -2.2940 cp         1 J6A      -0.036000
     22 CAZ         -9.6360     3.8150    -2.2860 cp         1 J6A       0.011000
     23 CAK         -9.9970     4.7500    -3.2550 ca         1 J6A      -0.128000
     24 CAW        -11.2640     5.3000    -3.2450 ca         1 J6A       0.113400
     25 FAD        -11.6140     6.2040    -4.1840 f          1 J6A      -0.109900
     26 CBB        -12.1770     4.9220    -2.2710 ca         1 J6A       0.051900
     27 FAF        -13.4160     5.4620    -2.2650 f          1 J6A      -0.102900
     28 CAX        -11.8220     3.9930    -1.3050 ca         1 J6A       0.113400
     29 FAE        -12.7150     3.6280    -0.3590 f          1 J6A      -0.109900
     30 CAL        -10.5580     3.4340    -1.3130 ca         1 J6A      -0.128000
     31 H1          -0.3600     0.0020    -1.0220 hc         1 J6A       0.022700
     32 H2          -0.3600    -0.8840     0.5130 hc         1 J6A       0.022700
     33 H3           1.8890    -0.8860    -0.5090 hc         1 J6A       0.012450
     34 H4           1.8890     0.8860    -0.5090 hc         1 J6A       0.012450
     35 H5           3.1230     0.0040     1.4410 hc         1 J6A       0.011200
     36 H6           1.6770    -0.8840     1.9530 hc         1 J6A       0.011200
     37 H7           1.8880     2.1330     1.6510 hc         1 J6A       0.012450
     38 H8           1.8880     1.2460     3.1850 hc         1 J6A       0.012450
     39 H9          -0.3610     0.3630     2.6720 hc         1 J6A       0.022700
     40 H10         -0.3610     2.1350     2.6720 hc         1 J6A       0.022700
     41 H11         -0.1450     2.1330     0.2110 hc         1 J6A       0.043700
     42 H12         -2.4020     0.3230     1.1520 hc         1 J6A       0.030200
     43 H13         -2.4030     2.0850     1.3070 hc         1 J6A       0.030200
     44 H14         -4.5180     1.3600    -0.1800 hn         1 J6A       0.182500
     45 H15         -3.6870     2.1530    -2.8820 h1         1 J6A       0.069700
     46 H16         -5.0610     0.8270    -4.7640 hn         1 J6A       0.156500
     47 H17         -4.9560    -1.1750    -5.7590 ho         1 J6A       0.392000
     48 H18         -6.3660     1.0140    -0.5850 ha         1 J6A       0.114500
     49 H19         -8.6260     1.9900    -0.5660 ha         1 J6A       0.116500
     50 H20         -5.3710     3.3430    -4.0250 ha         1 J6A       0.114500
     51 H21         -7.6280     4.3300    -4.0210 ha         1 J6A       0.116500
     52 H22         -9.3030     5.0010    -4.0490 ha         1 J6A       0.135500
     53 H23        -10.2810     2.7080    -0.5580 ha         1 J6A       0.135500
@<TRIPOS>BOND
     1     1     2 1   
     2     1     6 1   
     3     1    31 1   
     4     1    32 1   
     5     2     3 1   
     6     2    33 1   
     7     2    34 1   
     8     3     4 1   
     9     3    35 1   
    10     3    36 1   
    11     4     5 1   
    12     4    37 1   
    13     4    38 1   
    14     5     6 1   
    15     5    39 1   
    16     5    40 1   
    17     6     7 1   
    18     6    41 1   
    19     7     8 1   
    20     7    42 1   
    21     7    43 1   
    22     8     9 2   
    23     8    10 1   
    24    10    11 1   
    25    10    44 1   
    26    11    12 1   
    27    11    16 1   
    28    11    45 1   
    29    12    13 2   
    30    12    14 1   
    31    14    15 1   
    32    14    46 1   
    33    15    47 1   
    34    16    17 ar  
    35    16    19 ar  
    36    17    18 ar  
    37    17    48 1   
    38    18    21 ar  
    39    18    49 1   
    40    19    20 ar  
    41    19    50 1   
    42    20    21 ar  
    43    20    51 1   
    44    21    22 1   
    45    22    23 ar  
    46    22    30 ar  
    47    23    24 ar  
    48    23    52 1   
    49    24    25 1   
    50    24    26 ar  
    51    26    27 1   
    52    26    28 ar  
    53    28    29 1   
    54    28    30 ar  
    55    30    53 1   
@<TRIPOS>SUBSTRUCTURE
     1 J6A         1 TEMP              0 ****  ****    0 ROOT
