@<TRIPOS>MOLECULE
molecule
   53    55     1     0     0
SMALL
bcc


@<TRIPOS>ATOM
      1 CAP          0.0000     0.0000     0.0000 c3         1 J6A      -0.080400
      2 CAN          1.5290     0.0000     0.0000 c3         1 J6A      -0.076400
      3 CAM          2.0400     0.0000     1.4420 c3         1 J6A      -0.081400
      4 CAO          1.5290     1.2490     2.1630 c3         1 J6A      -0.076400
      5 CAQ         -0.0010     1.2490     2.1630 c3         1 J6A      -0.080400
      6 CBC         -0.5110     1.2490     0.7210 c3         1 J6A      -0.053700
      7 CAR         -2.0410     1.2490     0.7210 c3         1 J6A      -0.150400
      8 CAU         -2.5430     1.3730    -0.6950 c          1 J6A       0.671100
      9 OAA         -1.7550     1.4530    -1.6130 o          1 J6A      -0.605100
     10 N           -3.8680     1.3940    -0.9400 ns         1 J6A      -0.566900
     11 CA          -4.3560     1.5150    -2.3160 c3         1 J6A       0.104000
     12 C           -4.4070     0.1500    -2.9530 c          1 J6A       0.660100
     13 O           -4.0680    -0.8280    -2.3200 o          1 J6A      -0.558100
     14 NAS         -4.8280     0.0160    -4.2260 ns         1 J6A      -0.468400
     15 OAC         -4.8750    -1.2670    -4.8240 oh         1 J6A      -0.359100
     16 CBA         -5.7370     2.1170    -2.3090 ca         1 J6A      -0.100300
     17 CAJ         -6.6480     1.7400    -1.3380 ca         1 J6A      -0.117000
     18 CAH         -7.9140     2.2880    -1.3260 ca         1 J6A      -0.107000
     19 CAI         -6.0890     3.0480    -3.2690 ca         1 J6A      -0.117000
     20 CAG         -7.3530     3.6020    -3.2660 ca         1 J6A      -0.107000
     21 CAY         -8.2750     3.2220    -2.2940 cp         1 J6A      -0.034000
     22 CAZ         -9.6360     3.8150    -2.2860 cp         1 J6A       0.001000
     23 CAK         -9.9970     4.7500    -3.2550 ca         1 J6A      -0.156000
     24 CAW        -11.2640     5.3000    -3.2450 ca         1 J6A       0.129900
     25 FAD        -11.6140     6.2040    -4.1840 f          1 J6A      -0.117900
     26 CBB        -12.1770     4.9220    -2.2710 ca         1 J6A       0.059900
     27 FAF        -13.4160     5.4620    -2.2650 f          1 J6A      -0.112900
     28 CAX        -11.8220     3.9930    -1.3050 ca         1 J6A       0.129900
     29 FAE        -12.7150     3.6280    -0.3590 f          1 J6A      -0.117900
     30 CAL        -10.5580     3.4340    -1.3130 ca         1 J6A      -0.156000
     31 H1          -0.3600     0.0020    -1.0220 hc         1 J6A       0.047450
     32 H2          -0.3600    -0.8840     0.5130 hc         1 J6A       0.047450
     33 H3           1.8890    -0.8860    -0.5090 hc         1 J6A       0.041200
     34 H4           1.8890     0.8860    -0.5090 hc         1 J6A       0.041200
     35 H5           3.1230     0.0040     1.4410 hc         1 J6A       0.039200
     36 H6           1.6770    -0.8840     1.9530 hc         1 J6A       0.039200
     37 H7           1.8880     2.1330     1.6510 hc         1 J6A       0.041200
     38 H8           1.8880     1.2460     3.1850 hc         1 J6A       0.041200
     39 H9          -0.3610     0.3630     2.6720 hc         1 J6A       0.047450
     40 H10         -0.3610     2.1350     2.6720 hc         1 J6A       0.047450
     41 H11         -0.1450     2.1330     0.2110 hc         1 J6A       0.066700
     42 H12         -2.4020     0.3230     1.1520 hc         1 J6A       0.062200
     43 H13         -2.4030     2.0850     1.3070 hc         1 J6A       0.062200
     44 H14         -4.5180     1.3600    -0.1800 hn         1 J6A       0.323500
     45 H15         -3.6870     2.1530    -2.8820 h1         1 J6A       0.100700
     46 H16         -5.0610     0.8270    -4.7640 hn         1 J6A       0.318500
     47 H17         -4.9560    -1.1750    -5.7590 ho         1 J6A       0.398000
     48 H18         -6.3660     1.0140    -0.5850 ha         1 J6A       0.139500
     49 H19         -8.6260     1.9900    -0.5660 ha         1 J6A       0.140500
     50 H20         -5.3710     3.3430    -4.0250 ha         1 J6A       0.139500
     51 H21         -7.6280     4.3300    -4.0210 ha         1 J6A       0.140500
     52 H22         -9.3030     5.0010    -4.0490 ha         1 J6A       0.159000
     53 H23        -10.2810     2.7080    -0.5580 ha         1 J6A       0.159000
@<TRIPOS>BOND
     1    15    14 1
     2    14    12 1
     3    13    12 2
     4    12    11 1
     5     7     8 1
     6     7     6 1
     7    10    11 1
     8    10     8 1
     9    11    16 1
    10     8     9 2
    11     5     6 1
    12     5     4 1
    13     6     1 1
    14    16    19 ar
    15    16    17 ar
    16     4     3 1
    17    19    20 ar
    18    17    18 ar
    19     1     2 1
    20     3     2 1
    21    20    21 ar
    22    18    21 ar
    23    21    22 1
    24    22    23 ar
    25    22    30 ar
    26    23    24 ar
    27    30    28 ar
    28    24    25 1
    29    24    26 ar
    30    28    26 ar
    31    28    29 1
    32    26    27 1
    33     1    31 1
    34     1    32 1
    35     2    33 1
    36     2    34 1
    37     3    35 1
    38     3    36 1
    39     4    37 1
    40     4    38 1
    41     5    39 1
    42     5    40 1
    43     6    41 1
    44     7    42 1
    45     7    43 1
    46    10    44 1
    47    11    45 1
    48    14    46 1
    49    15    47 1
    50    17    48 1
    51    18    49 1
    52    19    50 1
    53    20    51 1
    54    23    52 1
    55    30    53 1
@<TRIPOS>SUBSTRUCTURE
     1 J6A         1 TEMP              0 ****  ****    0 ROOT
