@<TRIPOS>MOLECULE
molecule
   22    23     1     0     0
SMALL
bcc


@<TRIPOS>ATOM
      1 C10          0.0000     0.0000     0.0000 c3         1 J6W       0.212600
      2 C01          5.3950     0.0000     0.2420 ca         1 J6W      -0.095000
      3 C02          4.0180     0.0000     0.0000 ca         1 J6W      -0.012100
      4 C03          3.5450    -0.0040    -1.3150 ca         1 J6W      -0.077800
      5 C04          4.4790    -0.0070    -2.3740 ca         1 J6W      -0.090000
      6 C05          5.8150    -0.0060    -2.1160 ca         1 J6W      -0.087300
      7 C06          6.2820     0.0020    -0.8080 ca         1 J6W      -0.115000
      8 C07          6.7970    -0.0090    -3.2590 c3         1 J6W      -0.046800
      9 C08          2.0930    -0.0040    -1.3670 cc         1 J6W      -0.108200
     10 C09          1.4950    -0.0010    -0.1920 cd         1 J6W      -0.037600
     11 O11         -0.4720    -1.3480     0.0660 oh         1 J6W      -0.600800
     12 S12          2.6590     0.0040     1.1180 ss         1 J6W      -0.096500
     13 H1          -0.2450     0.5140     0.9220 h1         1 J6W       0.033200
     14 H2          -0.4710     0.5080    -0.8330 h1         1 J6W       0.033200
     15 H3           5.7640     0.0060     1.2610 ha         1 J6W       0.135000
     16 H4           4.1290    -0.0130    -3.4000 ha         1 J6W       0.133000
     17 H5           7.3480     0.0020    -0.6140 ha         1 J6W       0.134000
     18 H6           7.7850     0.2320    -2.8860 hc         1 J6W       0.043700
     19 H7           6.4980     0.7290    -3.9940 hc         1 J6W       0.043700
     20 H8           6.8140    -0.9900    -3.7180 hc         1 J6W       0.043700
     21 H9           1.5430    -0.0070    -2.3010 ha         1 J6W       0.152000
     22 H10         -1.3730    -1.3520     0.3440 ho         1 J6W       0.404000
@<TRIPOS>BOND
     1     8     6 1
     2     5     6 ar
     3     5     4 ar
     4     6     7 ar
     5     9     4 1
     6     9    10 2
     7     4     3 ar
     8    10     1 1
     9    10    12 1
    10     1    11 1
    11     7     2 ar
    12     3     2 ar
    13     3    12 1
    14     1    13 1
    15     1    14 1
    16     2    15 1
    17     5    16 1
    18     7    17 1
    19     8    18 1
    20     8    19 1
    21     8    20 1
    22     9    21 1
    23    11    22 1
@<TRIPOS>SUBSTRUCTURE
     1 J6W         1 TEMP              0 ****  ****    0 ROOT
