@<TRIPOS>MOLECULE
molecule
   17    16     1     0     0
SMALL
bcc


@<TRIPOS>ATOM
      1 C1           1.8140     0.0000     0.0000 c3         1 J6Z      -0.242900
      2 S1           0.0000     0.0000     0.0000 s6         1 J6Z       1.272800
      3 C2           2.3240     0.0000     1.4420 c3         1 J6Z      -0.046400
      4 O2          -0.4690     0.0000    -1.3770 o          1 J6Z      -0.713867
      5 C3           2.3250    -1.2480    -0.7210 c3         1 J6Z      -0.056100
      6 O3          -0.4680    -1.1930     0.6870 o          1 J6Z      -0.713867
      7 C4           1.9190     1.3070     2.1270 c3         1 J6Z      -0.096100
      8 H1           2.1750     0.8850    -0.5100 h1         1 J6Z       0.068700
      9 H2           1.8930    -0.8370     1.9780 hc         1 J6Z       0.028700
     10 H2A          3.4040    -0.0880     1.4440 hc         1 J6Z       0.028700
     11 H3           1.9760    -2.1330    -0.2030 hc         1 J6Z       0.026700
     12 H3A          1.9520    -1.2550    -1.7390 hc         1 J6Z       0.026700
     13 H3B          3.4080    -1.2400    -0.7340 hc         1 J6Z       0.026700
     14 H4           2.6820     1.5920     2.8410 hc         1 J6Z       0.034367
     15 H4A          1.8110     2.0860     1.3830 hc         1 J6Z       0.034367
     16 H4B          0.9760     1.1670     2.6430 hc         1 J6Z       0.034367
     17 O31         -0.4700     1.1920     0.6890 o          1 J6Z      -0.713867
@<TRIPOS>BOND
     1     1     2 1
     2     1     3 1
     3     1     5 1
     4     1     8 1
     5     2     4 1
     6     2     6 1
     7     3     7 1
     8     3     9 1
     9     3    10 1
    10     5    11 1
    11     5    12 1
    12     5    13 1
    13     7    14 1
    14     7    15 1
    15     7    16 1
    16    17     2 1
@<TRIPOS>SUBSTRUCTURE
     1 J6Z         1 TEMP              0 ****  ****    0 ROOT
