@<TRIPOS>MOLECULE
J6Z
   17    15     1     0     0
SMALL
bcc


@<TRIPOS>ATOM
      1 C1          3.2980   -0.3840    0.0070 c2        1 J6Z     -0.183200
      2 S1         -1.8440   -0.3590    0.3090 s6        1 J6Z      1.450800
      3 C2          2.7200   -0.0150    1.3240 c3        1 J6Z     -0.071200
      4 O2         -2.4580   -1.1250   -0.7120 o         1 J6Z     -0.760867
      5 C3          2.5460   -0.7460   -1.0300 c2        1 J6Z     -0.219000
      6 O3         -0.4250   -0.3370    0.2330 o         1 J6Z     -0.760867
      7 C4          3.2940    1.2780    1.8480 c3        1 J6Z     -0.078100
      8 H1         -2.1880    0.8330    0.0630 hs        1 J6Z     -0.163200
      9 H2          4.3980   -0.3470   -0.0550 ha        1 J6Z      0.082000
     10 H2A         2.9360   -0.8400    2.0560 hc        1 J6Z      0.075200
     11 H3          1.5960    0.0660    1.2370 hc        1 J6Z      0.075200
     12 H3A         1.4420   -0.7730   -0.9650 ha        1 J6Z      0.130500
     13 H3B         2.9810   -1.0330   -1.9960 ha        1 J6Z      0.130500
     14 H4          3.0610    2.1200    1.1520 hc        1 J6Z      0.018033
     15 H4A         4.4040    1.2110    1.9560 hc        1 J6Z      0.018033
     16 H4B         2.8550    1.5160    2.8470 hc        1 J6Z      0.018033
     17 O31        -2.3430   -0.6120    1.6100 o         1 J6Z     -0.760867
@<TRIPOS>BOND
     1    1    3 1   
     2    1    5 2   
     3    1    9 1   
     4    2    4 1   
     5    2    6 1   
     6    2    8 1   
     7    2   17 1   
     8    3    7 1   
     9    3   10 1   
    10    3   11 1   
    11    5   12 1   
    12    5   13 1   
    13    7   14 1   
    14    7   15 1   
    15    7   16 1   
@<TRIPOS>SUBSTRUCTURE
     1 J6Z         1 TEMP              0 ****  ****    0 ROOT
