@<TRIPOS>MOLECULE
molecule
   37    38     1     0     0
SMALL
bcc


@<TRIPOS>ATOM
      1 N1           0.0000     0.0000     0.0000 nb         1 J71      -0.834000
      2 C2           1.3180     0.0000     0.0000 ca         1 J71       0.789900
      3 N3           2.0140     0.0000     1.1190 nb         1 J71      -0.834000
      4 C4           1.4030    -0.0000     2.3020 ca         1 J71       0.790200
      5 C5           0.0120    -0.0000     2.3440 ca         1 J71      -0.480800
      6 C6          -0.6830    -0.0000     1.1410 ca         1 J71       0.774600
      7 N7           2.1430    -0.0010     3.4740 nu         1 J71      -0.906900
      8 C8           4.1640    -0.0020     4.8180 ca         1 J71      -0.020300
      9 C9           4.4190    -1.1990     5.4600 ca         1 J71      -0.113500
     10 C10          4.9360    -1.2000     6.7420 ca         1 J71      -0.028000
     11 C11          5.1970    -0.0030     7.3820 ca         1 J71      -0.337500
     12 C12          4.9430     1.1940     6.7390 ca         1 J71      -0.028000
     13 C13          4.4250     1.1950     5.4580 ca         1 J71      -0.113500
     14 S14          5.8540    -0.0040     9.0160 sy         1 J71       1.227200
     15 O15          5.5030     1.2480     9.5910 o          1 J71      -0.513800
     16 O16          5.4940    -1.2510     9.5940 o          1 J71      -0.513800
     17 N17          7.5040    -0.0090     8.8820 nz         1 J71      -0.807500
     18 N18         -0.7090    -0.0010     3.6370 no         1 J71       0.303200
     19 O19         -1.0060     1.0540     4.1690 o          1 J71      -0.187000
     20 O20         -1.0050    -1.0550     4.1680 o          1 J71      -0.187000
     21 O21         -2.0380    -0.0000     1.1310 os         1 J71      -0.414100
     22 C22         -2.6770     0.0000    -0.1480 c3         1 J71       0.134700
     23 C23          3.6070    -0.0020     3.4180 c3         1 J71       0.278100
     24 H2           1.8440     0.0000    -0.9470 h5         1 J71       0.077100
     25 HN7          1.6770    -0.0010     4.3600 hn         1 J71       0.465800
     26 H9           4.2140    -2.1370     4.9580 ha         1 J71       0.172000
     27 H10          5.1350    -2.1380     7.2450 ha         1 J71       0.160000
     28 H12          5.1480     2.1320     7.2410 ha         1 J71       0.160000
     29 H13          4.2260     2.1330     4.9550 ha         1 J71       0.172000
     30 HN17         7.8010     0.8070     8.3840 hn         1 J71       0.492467
     31 HN1A         7.7960    -0.8280     8.3860 hn         1 J71       0.492467
     32 H22         -2.3820     0.8850    -0.6990 h1         1 J71       0.061367
     33 H22A        -2.3820    -0.8840    -0.6990 h1         1 J71       0.061367
     34 H22B        -3.7520     0.0000    -0.0140 h1         1 J71       0.061367
     35 H23          3.9480     0.8820     2.8930 h1         1 J71       0.076700
     36 H23A         3.9470    -0.8870     2.8940 h1         1 J71       0.076700
     37 H173         7.9140     0.0030     9.7950 hn         1 J71       0.492467
@<TRIPOS>BOND
     1     1     2 ar
     2     1     6 ar
     3     2     3 ar
     4     3     4 ar
     5     4     5 ar
     6     4     7 1
     7     5     6 ar
     8     5    18 1
     9     6    21 1
    10     7    23 1
    11     8     9 ar
    12     8    13 ar
    13     8    23 1
    14     9    10 ar
    15    10    11 ar
    16    11    12 ar
    17    11    14 1
    18    12    13 ar
    19    14    15 2
    20    14    16 2
    21    14    17 1
    22    18    19 1
    23    18    20 1
    24    21    22 1
    25     2    24 1
    26     7    25 1
    27     9    26 1
    28    10    27 1
    29    12    28 1
    30    13    29 1
    31    17    30 1
    32    17    31 1
    33    22    32 1
    34    22    33 1
    35    22    34 1
    36    23    35 1
    37    23    36 1
    38    37    17 1
@<TRIPOS>SUBSTRUCTURE
     1 J71         1 TEMP              0 ****  ****    0 ROOT
