@<TRIPOS>MOLECULE
molecule
   37    40     1     0     0
SMALL
bcc


@<TRIPOS>ATOM
      1 O1           0.0000     0.0000     0.0000 oh         1 J72      -0.379500
      2 N2           1.4160     0.0000     0.0000 n2         1 J72      -0.342200
      3 C3           2.0670     0.0000     1.1270 cc         1 J72       0.374900
      4 C4           3.5390    -0.0000     1.3240 c          1 J72       0.646200
      5 O5           4.3800    -0.0010     0.4440 o          1 J72      -0.576500
      6 N6           3.7770     0.0010     2.6460 n          1 J72      -0.360000
      7 C7           5.1150     0.0020     3.2440 c3         1 J72       0.175300
      8 C8           5.5730     1.4220     3.4470 ca         1 J72      -0.125300
      9 C9           6.4430     2.0040     2.5440 ca         1 J72      -0.108000
     10 C10          6.8640     3.3090     2.7310 ca         1 J72       0.104900
     11 F11          7.7150     3.8770     1.8480 f          1 J72      -0.135900
     12 C12          6.4150     4.0330     3.8220 ca         1 J72      -0.118000
     13 C13          5.5460     3.4550     4.7260 ca         1 J72      -0.178300
     14 C14          5.0650     4.2510     5.9140 c3         1 J72       0.186700
     15 O15          3.9210     3.6090     6.4840 os         1 J72      -0.422600
     16 C16          4.1150     2.2050     6.6940 c3         1 J72       0.336200
     17 O17          4.2620     1.5690     5.4220 os         1 J72      -0.353900
     18 C18          5.1170     2.1500     4.5380 ca         1 J72       0.150100
     19 C19          2.5910     0.0020     3.3770 ca         1 J72       0.060600
     20 C20          2.3550     0.0020     4.7470 ca         1 J72      -0.123000
     21 C21          1.0600     0.0030     5.2280 ca         1 J72      -0.129000
     22 C22         -0.0160     0.0020     4.3550 ca         1 J72       0.100900
     23 F23         -1.2770     0.0020     4.8390 f          1 J72      -0.137900
     24 C24          0.2010     0.0020     2.9890 ca         1 J72      -0.088000
     25 C25          1.5010     0.0070     2.4980 ca         1 J72      -0.205900
     26 HO1         -0.3140    -0.0010    -0.8890 ho         1 J72       0.439000
     27 H7           5.0840    -0.5080     4.2000 h1         1 J72       0.075700
     28 H7A          5.8060    -0.5090     2.5850 h1         1 J72       0.075700
     29 H9           6.8190     1.4280     1.7070 ha         1 J72       0.164000
     30 H12          6.7460     5.0550     3.9660 ha         1 J72       0.150000
     31 H14          4.7950     5.2500     5.5920 h1         1 J72       0.066700
     32 H14A         5.8540     4.3050     6.6540 h1         1 J72       0.066700
     33 H16          5.0210     2.0570     7.2680 h2         1 J72       0.070200
     34 H16A         3.2410     1.8000     7.1910 h2         1 J72       0.070200
     35 H20          3.1880     0.0030     5.4400 ha         1 J72       0.158000
     36 H21          0.8840    -0.0000     6.2970 ha         1 J72       0.146000
     37 H24         -0.6380     0.0010     2.3050 ha         1 J72       0.166000
@<TRIPOS>BOND
     1     2     1 1
     2     1    26 1
     3     3     2 2
     4     4     3 1
     5    25     3 1
     6     6     4 1
     7     5     4 2
     8     7     6 1
     9     6    19 1
    10     7     8 1
    11     7    27 1
    12     7    28 1
    13    18     8 ar
    14     8     9 ar
    15     9    10 ar
    16     9    29 1
    17    12    10 ar
    18    10    11 1
    19    13    12 ar
    20    12    30 1
    21    18    13 ar
    22    14    13 1
    23    15    14 1
    24    14    31 1
    25    14    32 1
    26    16    15 1
    27    17    16 1
    28    16    33 1
    29    16    34 1
    30    17    18 1
    31    20    19 ar
    32    19    25 ar
    33    20    21 ar
    34    20    35 1
    35    21    22 ar
    36    21    36 1
    37    22    24 ar
    38    22    23 1
    39    25    24 ar
    40    24    37 1
@<TRIPOS>SUBSTRUCTURE
     1 J72         1 TEMP              0 ****  ****    0 ROOT
