@<TRIPOS>MOLECULE
J73
   50    52     1     0     0
SMALL
bcc


@<TRIPOS>ATOM
      1 O42         0.2780   -0.7160   -0.3180 oh        1 J73     -0.606800
      2 C41         1.6620   -0.3870   -0.2610 c3        1 J73      0.120100
      3 C39         2.0210   -0.1930    1.1610 cc        1 J73      0.239600
      4 N38         3.3270    0.1260    1.6120 nc        1 J73     -0.353000
      5 N37         3.3270    0.2330    2.8770 nd        1 J73     -0.170800
      6 C40         1.2060   -0.2710    2.3040 cd        1 J73     -0.189600
      7 N36         2.0790    0.0170    3.3640 na        1 J73      0.042400
      8 C35         1.7180    0.0240    4.7670 c3        1 J73      0.056300
      9 C34         2.3280   -1.1270    5.5740 c3        1 J73     -0.051100
     10 C16         1.9050   -1.0230    6.9970 ca        1 J73     -0.113300
     11 C17         0.9350   -1.8900    7.5140 ca        1 J73     -0.102000
     12 C18         0.5480   -1.8090    8.8480 ca        1 J73     -0.158500
     13 C13         1.1380   -0.8360    9.6700 ca        1 J73      0.116100
     14 C14         2.1040    0.0440    9.1670 ca        1 J73     -0.158500
     15 C15         2.4850   -0.0610    7.8320 ca        1 J73     -0.102000
     16 O1          0.6550   -0.7780   10.9690 os        1 J73     -0.361900
     17 C1          1.5820   -0.3660   11.9690 c3        1 J73      0.304900
     18 C2          1.1100   -1.0150   13.2880 c3        1 J73      0.091100
     19 O2          2.1090   -0.8760   14.2840 oh        1 J73     -0.597800
     20 C3         -0.1500   -0.3260   13.8270 c3        1 J73      0.116100
     21 O3         -0.4780   -0.7730   15.1260 oh        1 J73     -0.594800
     22 C4          0.0340    1.2000   13.8200 c3        1 J73      0.085100
     23 O4         -1.1550    1.8570   14.2230 oh        1 J73     -0.594800
     24 C5          0.3650    1.6610   12.3920 c3        1 J73      0.147100
     25 O5          1.5850    1.0400   11.9680 os        1 J73     -0.421600
     26 C6          0.6210    3.1680   12.3480 c3        1 J73      0.134400
     27 O6          0.3570    3.5950   11.0220 oh        1 J73     -0.596800
     28 H42         0.0690   -0.8230   -1.2520 ho        1 J73      0.407000
     29 H411        1.8540    0.5570   -0.8430 h1        1 J73      0.043200
     30 H412        2.2700   -1.2230   -0.7060 h1        1 J73      0.043200
     31 H40         0.1460   -0.4840    2.4210 h4        1 J73      0.201000
     32 H351        2.0540    1.0020    5.2180 h1        1 J73      0.070200
     33 H352        0.5940   -0.0290    4.8250 h1        1 J73      0.070200
     34 H341        3.4480   -1.0850    5.5080 hc        1 J73      0.066200
     35 H342        2.0030   -2.1110    5.1430 hc        1 J73      0.066200
     36 H17         0.4750   -2.6490    6.8630 ha        1 J73      0.137000
     37 H15         3.2460    0.6240    7.4290 ha        1 J73      0.137000
     38 H18        -0.2150   -2.4830    9.2600 ha        1 J73      0.156000
     39 H14         2.5380    0.8210    9.8160 ha        1 J73      0.156000
     40 H1          2.6430   -0.6550   11.7220 h2        1 J73      0.086700
     41 H2          0.8950   -2.1040   13.1030 h1        1 J73      0.071700
     42 HA          2.8710   -1.3960   14.0010 ho        1 J73      0.415000
     43 H3         -1.0330   -0.6140   13.1880 h1        1 J73      0.105700
     44 HB          0.3130   -0.6790   15.6750 ho        1 J73      0.421000
     45 H4          0.8700    1.4800   14.5210 h1        1 J73      0.059700
     46 HC         -1.5170    1.3460   14.9610 ho        1 J73      0.421000
     47 H5         -0.4620    1.3810   11.6840 h1        1 J73      0.090700
     48 H61C        1.6860    3.3900   12.6240 h1        1 J73      0.046700
     49 H62C       -0.0780    3.6760   13.0660 h1        1 J73      0.046700
     50 H6          0.5320    4.5430   11.0020 ho        1 J73      0.401000
@<TRIPOS>BOND
     1    1    2 1   
     2    1   28 1   
     3    2    3 1   
     4    2   29 1   
     5    2   30 1   
     6    3    4 1   
     7    3    6 2   
     8    4    5 2   
     9    5    7 1   
    10    6    7 1   
    11    6   31 1   
    12    7    8 1   
    13    8    9 1   
    14    8   32 1   
    15    8   33 1   
    16    9   10 1   
    17    9   34 1   
    18    9   35 1   
    19   10   11 ar  
    20   10   15 ar  
    21   11   12 ar  
    22   11   36 1   
    23   12   13 ar  
    24   12   38 1   
    25   13   14 ar  
    26   13   16 1   
    27   14   15 ar  
    28   14   39 1   
    29   15   37 1   
    30   16   17 1   
    31   17   18 1   
    32   17   25 1   
    33   17   40 1   
    34   18   19 1   
    35   18   20 1   
    36   18   41 1   
    37   19   42 1   
    38   20   21 1   
    39   20   22 1   
    40   20   43 1   
    41   21   44 1   
    42   22   23 1   
    43   22   24 1   
    44   22   45 1   
    45   23   46 1   
    46   24   25 1   
    47   24   26 1   
    48   24   47 1   
    49   26   27 1   
    50   26   48 1   
    51   26   49 1   
    52   27   50 1   
@<TRIPOS>SUBSTRUCTURE
     1 J73         1 TEMP              0 ****  ****    0 ROOT
