@<TRIPOS>MOLECULE
molecule
   50    52     1     0     0
SMALL
bcc


@<TRIPOS>ATOM
      1 O42          0.0000     0.0000     0.0000 oh         1 J73      -0.618800
      2 C41          1.4300     0.0000     0.0000 c3         1 J73       0.132100
      3 C39          1.9320     0.0000     1.4210 cc         1 J73       0.265600
      4 N38          3.2090     0.0010     1.8170 nc         1 J73      -0.365000
      5 N37          3.2460     0.0000     3.1030 nd         1 J73      -0.206800
      6 C40          1.1790     0.0060     2.5460 cd         1 J73      -0.260600
      7 N36          2.0510     0.0010     3.5810 na         1 J73       0.121400
      8 C35          1.6940     0.0010     5.0020 c3         1 J73       0.061300
      9 C34          2.3740    -1.1790     5.6990 c3         1 J73      -0.046100
     10 C16          2.0080    -1.1790     7.1600 ca         1 J73      -0.131300
     11 C17          0.8880    -1.8660     7.5920 ca         1 J73      -0.087000
     12 C18          0.5500    -1.8680     8.9310 ca         1 J73      -0.173500
     13 C13          1.3350    -1.1780     9.8440 ca         1 J73       0.142100
     14 C14          2.4580    -0.4890     9.4080 ca         1 J73      -0.173500
     15 C15          2.7950    -0.4960     8.0690 ca         1 J73      -0.087000
     16 O1           1.0050    -1.1770    11.1620 os         1 J73      -0.358900
     17 C1           1.8580    -0.4460    12.0450 c3         1 J73       0.315900
     18 C2           1.4820    -0.7600    13.4950 c3         1 J73       0.116100
     19 O2           2.3700    -0.0700    14.3780 oh         1 J73      -0.572800
     20 C3           0.0440    -0.2990    13.7520 c3         1 J73       0.134100
     21 O3          -0.2900    -0.5210    15.1240 oh         1 J73      -0.593800
     22 C4          -0.0680     1.1940    13.4330 c3         1 J73       0.113100
     23 O4          -1.4210     1.6190    13.5990 oh         1 J73      -0.604800
     24 C5           0.3690     1.4330    11.9840 c3         1 J73       0.145100
     25 O5           1.7030     0.9540    11.8060 os         1 J73      -0.403600
     26 C6           0.3180     2.9300    11.6770 c3         1 J73       0.151400
     27 O6           0.6120     3.1420    10.2940 oh         1 J73      -0.601800
     28 H42         -0.3140    -0.0010    -0.8890 ho         1 J73       0.410000
     29 H411         1.7910     0.8850    -0.5110 h1         1 J73       0.040700
     30 H412         1.7910    -0.8850    -0.5110 h1         1 J73       0.040700
     31 H40          0.0980     0.0070     2.6060 h4         1 J73       0.194000
     32 H351         2.0240     0.9280     5.4570 h1         1 J73       0.073200
     33 H352         0.6200    -0.0890     5.1040 h1         1 J73       0.073200
     34 H341         2.0440    -2.1050     5.2450 hc         1 J73       0.067700
     35 H342         3.4480    -1.0900     5.5960 hc         1 J73       0.067700
     36 H17          0.2760    -2.4050     6.8790 ha         1 J73       0.136000
     37 H15          3.6720     0.0420     7.7280 ha         1 J73       0.136000
     38 H18         -0.3270    -2.4070     9.2680 ha         1 J73       0.147000
     39 H14          3.0740     0.0480    10.1190 ha         1 J73       0.147000
     40 H1           2.8900    -0.7280    11.8720 h2         1 J73       0.086700
     41 H2           1.5540    -1.8280    13.6630 h1         1 J73       0.053700
     42 HA           3.0270    -0.6690    14.6940 ho         1 J73       0.407000
     43 H3          -0.6320    -0.8550    13.1140 h1         1 J73       0.066700
     44 HB          -0.9340    -1.2080    15.1830 ho         1 J73       0.406000
     45 H4           0.5770     1.7540    14.1000 h1         1 J73       0.071700
     46 HC          -1.4970     2.1230    14.3930 ho         1 J73       0.413000
     47 H5          -0.2960     0.8990    11.3160 h1         1 J73       0.073700
     48 H61C         1.0490     3.4490    12.2850 h1         1 J73       0.037200
     49 H62C        -0.6720     3.3110    11.8980 h1         1 J73       0.037200
     50 H6           0.4720     4.0490    10.0780 ho         1 J73       0.402000
@<TRIPOS>BOND
     1     1     2 1
     2     2     3 1
     3     3     4 1
     4     3     6 2
     5     4     5 2
     6     5     7 1
     7     6     7 1
     8     7     8 1
     9     8     9 1
    10     9    10 1
    11    10    11 ar
    12    10    15 ar
    13    11    12 ar
    14    12    13 ar
    15    13    14 ar
    16    13    16 1
    17    14    15 ar
    18    16    17 1
    19    17    18 1
    20    17    25 1
    21    18    19 1
    22    18    20 1
    23    20    21 1
    24    20    22 1
    25    22    23 1
    26    22    24 1
    27    24    25 1
    28    24    26 1
    29    26    27 1
    30     1    28 1
    31     2    29 1
    32     2    30 1
    33     6    31 1
    34     8    32 1
    35     8    33 1
    36     9    34 1
    37     9    35 1
    38    11    36 1
    39    15    37 1
    40    12    38 1
    41    14    39 1
    42    17    40 1
    43    18    41 1
    44    19    42 1
    45    20    43 1
    46    21    44 1
    47    22    45 1
    48    23    46 1
    49    24    47 1
    50    26    48 1
    51    26    49 1
    52    27    50 1
@<TRIPOS>SUBSTRUCTURE
     1 J73         1 TEMP              0 ****  ****    0 ROOT
