@<TRIPOS>MOLECULE
molecule
   36    37     1     0     0
SMALL
bcc


@<TRIPOS>ATOM
      1 N1           0.0000     0.0000     0.0000 nb         1 J74      -0.755000
      2 C2           1.3180     0.0000     0.0000 ca         1 J74       0.771900
      3 N3           2.0130     0.0000     1.1200 nb         1 J74      -0.809000
      4 C4           1.4010     0.0010     2.3000 ca         1 J74       0.778200
      5 C5           0.0060     0.0020     2.3370 ca         1 J74      -0.455800
      6 C6          -0.6830     0.0010     1.1380 ca         1 J74       0.633300
      7 N7           2.1360    -0.0000     3.4740 nu         1 J74      -0.902900
      8 C8           5.6670    -0.0030     4.7920 ca         1 J74       0.020700
      9 C9           6.3590     1.1930     4.7660 ca         1 J74      -0.127000
     10 C10          7.7410     1.1910     4.7230 ca         1 J74      -0.023500
     11 C11          8.4300    -0.0060     4.7050 ca         1 J74      -0.345500
     12 C12          7.7390    -1.2030     4.7300 ca         1 J74      -0.023500
     13 C13          6.3570    -1.2020     4.7730 ca         1 J74      -0.127000
     14 S14         10.1910    -0.0090     4.6480 sy         1 J74       1.226200
     15 O15         10.5740    -1.2610     4.0960 o          1 J74      -0.516300
     16 O16         10.5770     1.2390     4.0860 o          1 J74      -0.516300
     17 N17         10.7330    -0.0040     6.2130 nz         1 J74      -0.806500
     18 N18         -0.7190     0.0020     3.6270 no         1 J74       0.291200
     19 O19         -1.0170     1.0570     4.1590 o          1 J74      -0.179500
     20 O20         -1.0190    -1.0530     4.1590 o          1 J74      -0.179500
     21 Cl21        -2.4190     0.0020     1.1200 cl         1 J74      -0.083000
     22 C22          3.5990    -0.0010     3.4220 c3         1 J74       0.249800
     23 C23          4.1610    -0.0020     4.8450 c3         1 J74      -0.078100
     24 H2           1.8440    -0.0010    -0.9470 h5         1 J74       0.081100
     25 HN7          1.6660     0.0000     4.3580 hn         1 J74       0.464800
     26 H9           5.8190     2.1320     4.7810 ha         1 J74       0.168500
     27 H10          8.2830     2.1290     4.7030 ha         1 J74       0.158000
     28 H12          8.2790    -2.1410     4.7160 ha         1 J74       0.158000
     29 H13          5.8150    -2.1400     4.7930 ha         1 J74       0.168500
     30 HN17        11.7340    -0.0050     6.2190 hn         1 J74       0.492467
     31 HN1A        10.3950    -0.8190     6.6850 hn         1 J74       0.492467
     32 H22          3.9410    -0.8860     2.8990 h1         1 J74       0.063700
     33 H22A         3.9430     0.8830     2.9000 h1         1 J74       0.063700
     34 H23          3.8190     0.8820     5.3690 hc         1 J74       0.075700
     35 H23A         3.8170    -0.8870     5.3680 hc         1 J74       0.075700
     36 H173        10.3880     0.8100     6.6830 hn         1 J74       0.492467
@<TRIPOS>BOND
     1     1     2 ar
     2     1     6 ar
     3     2     3 ar
     4     3     4 ar
     5     4     5 ar
     6     4     7 1
     7     5     6 ar
     8     5    18 1
     9     6    21 1
    10     7    22 1
    11     8     9 ar
    12     8    13 ar
    13     8    23 1
    14     9    10 ar
    15    10    11 ar
    16    11    12 ar
    17    11    14 1
    18    12    13 ar
    19    14    15 2
    20    14    16 2
    21    14    17 1
    22    18    19 1
    23    18    20 1
    24    22    23 1
    25     2    24 1
    26     7    25 1
    27     9    26 1
    28    10    27 1
    29    12    28 1
    30    13    29 1
    31    17    30 1
    32    17    31 1
    33    22    32 1
    34    22    33 1
    35    23    34 1
    36    23    35 1
    37    36    17 1
@<TRIPOS>SUBSTRUCTURE
     1 J74         1 TEMP              0 ****  ****    0 ROOT
