@<TRIPOS>MOLECULE
J74
   36    37     1     0     0
SMALL
bcc


@<TRIPOS>ATOM
      1 N1           0.0000     0.0000     0.0000 nb         1 J74      -0.658000
      2 C2           1.3180     0.0000     0.0000 ca         1 J74       0.736900
      3 N3           2.0130     0.0000     1.1200 nb         1 J74      -0.716000
      4 C4           1.4010     0.0010     2.3000 ca         1 J74       0.613200
      5 C5           0.0060     0.0020     2.3370 ca         1 J74      -0.738800
      6 C6          -0.6830     0.0010     1.1380 ca         1 J74       0.532300
      7 N7           2.1360    -0.0000     3.4740 nu         1 J74      -0.490900
      8 C8           5.6670    -0.0030     4.7920 ca         1 J74       0.019700
      9 C9           6.3590     1.1930     4.7660 ca         1 J74      -0.102500
     10 C10          7.7410     1.1910     4.7230 ca         1 J74       0.017500
     11 C11          8.4300    -0.0060     4.7050 ca         1 J74      -0.231500
     12 C12          7.7390    -1.2030     4.7300 ca         1 J74       0.017500
     13 C13          6.3570    -1.2020     4.7730 ca         1 J74      -0.102500
     14 S14         10.1910    -0.0090     4.6480 sy         1 J74       0.935200
     15 O15         10.5740    -1.2610     4.0960 o          1 J74      -0.493800
     16 O16         10.5770     1.2390     4.0860 o          1 J74      -0.493800
     17 N17         10.7330    -0.0040     6.2130 nz         1 J74      -0.131500
     18 N18         -0.7190     0.0020     3.6270 no         1 J74       1.051200
     19 O19         -1.0170     1.0570     4.1590 o          1 J74      -0.429000
     20 O20         -1.0190    -1.0530     4.1590 o          1 J74      -0.429000
     21 Cl21        -2.4190     0.0020     1.1200 cl         1 J74      -0.004000
     22 C22          3.5990    -0.0010     3.4220 c3         1 J74       0.175800
     23 C23          4.1610    -0.0020     4.8450 c3         1 J74      -0.004100
     24 H2           1.8440    -0.0010    -0.9470 h5         1 J74       0.008100
     25 HN7          1.6660     0.0000     4.3580 hn         1 J74       0.303800
     26 H9           5.8190     2.1320     4.7810 ha         1 J74       0.136000
     27 H10          8.2830     2.1290     4.7030 ha         1 J74       0.127000
     28 H12          8.2790    -2.1410     4.7160 ha         1 J74       0.127000
     29 H13          5.8150    -2.1400     4.7930 ha         1 J74       0.136000
     30 HN17        11.7340    -0.0050     6.2190 hn         1 J74       0.313800
     31 HN1A        10.3950    -0.8190     6.6850 hn         1 J74       0.313800
     32 H22          3.9410    -0.8860     2.8990 h1         1 J74       0.033200
     33 H22A         3.9430     0.8830     2.9000 h1         1 J74       0.033200
     34 H23          3.8190     0.8820     5.3690 hc         1 J74       0.038700
     35 H23A         3.8170    -0.8870     5.3680 hc         1 J74       0.038700
     36 H173        10.3880     0.8100     6.6830 hn         1 J74       0.313800
@<TRIPOS>BOND
     1     1     2 ar  
     2     1     6 ar  
     3     2     3 ar  
     4     2    24 1   
     5     3     4 ar  
     6     4     5 ar  
     7     4     7 1   
     8     5     6 ar  
     9     5    18 1   
    10     6    21 1   
    11     7    22 1   
    12     7    25 1   
    13     8     9 ar  
    14     8    13 ar  
    15     8    23 1   
    16     9    10 ar  
    17     9    26 1   
    18    10    11 ar  
    19    10    27 1   
    20    11    12 ar  
    21    11    14 1   
    22    12    13 ar  
    23    12    28 1   
    24    13    29 1   
    25    14    15 2   
    26    14    16 2   
    27    14    17 1   
    28    17    30 1   
    29    17    31 1   
    30    17    36 1   
    31    18    19 1   
    32    18    20 1   
    33    22    23 1   
    34    22    32 1   
    35    22    33 1   
    36    23    34 1   
    37    23    35 1   
@<TRIPOS>SUBSTRUCTURE
     1 J74         1 TEMP              0 ****  ****    0 ROOT
