@<TRIPOS>MOLECULE
J75
   48    50     1     0     0
SMALL
bcc


@<TRIPOS>ATOM
      1 N1           0.0000     0.0000     0.0000 nb         1 J75      -0.737000
      2 C2           1.3170     0.0000     0.0000 ca         1 J75       0.766900
      3 N3           2.0150     0.0000     1.1170 nb         1 J75      -0.770000
      4 C4           1.4060    -0.0010     2.3020 ca         1 J75       0.647200
      5 C5           0.0150    -0.0010     2.3470 ca         1 J75      -0.827800
      6 C6          -0.6830    -0.0010     1.1430 ca         1 J75       0.642200
      7 N7           2.1480    -0.0020     3.4730 nu         1 J75      -0.505900
      8 C8           4.1710    -0.0030     4.8130 ca         1 J75      -0.019300
      9 C9           4.4280    -1.2010     5.4530 ca         1 J75      -0.089500
     10 C10          4.9470    -1.2020     6.7350 ca         1 J75       0.013000
     11 C11          5.2100    -0.0060     7.3750 ca         1 J75      -0.224500
     12 C12          4.9550     1.1920     6.7340 ca         1 J75       0.013000
     13 C13          4.4340     1.1930     5.4530 ca         1 J75      -0.089500
     14 S14          5.8710    -0.0070     9.0080 sy         1 J75       0.935200
     15 O15          5.5200     1.2440     9.5840 o          1 J75      -0.492800
     16 O16          5.5120    -1.2550     9.5860 o          1 J75      -0.492800
     17 N17          7.5210    -0.0120     8.8700 nz         1 J75      -0.131500
     18 N18         -0.7030    -0.0020     3.6420 no         1 J75       1.061200
     19 O19         -0.9980     1.0520     4.1750 o          1 J75      -0.442000
     20 O20         -0.9980    -1.0570     4.1740 o          1 J75      -0.442000
     21 N21         -2.0690    -0.0000     1.1350 nu         1 J75      -0.455900
     22 C22         -2.7940     0.0010    -0.1380 c3         1 J75       0.225100
     23 C23         -4.2770     0.0010     0.1280 ca         1 J75      -0.145300
     24 C24         -4.9570     1.1980     0.2510 ca         1 J75      -0.079000
     25 C25         -6.3180     1.1990     0.4950 ca         1 J75      -0.097000
     26 C26         -6.9990     0.0010     0.6160 ca         1 J75      -0.080000
     27 C27         -6.3190    -1.1960     0.4920 ca         1 J75      -0.097000
     28 C28         -4.9580    -1.1960     0.2440 ca         1 J75      -0.079000
     29 C29          3.6120    -0.0020     3.4130 c3         1 J75       0.216100
     30 H2           1.8430     0.0010    -0.9470 h5         1 J75       0.002100
     31 HN7          1.6830     0.0100     4.3600 hn         1 J75       0.299800
     32 H9           4.2230    -2.1390     4.9510 ha         1 J75       0.138000
     33 H10          5.1480    -2.1410     7.2370 ha         1 J75       0.128000
     34 H12          5.1600     2.1300     7.2360 ha         1 J75       0.128000
     35 H13          4.2330     2.1320     4.9510 ha         1 J75       0.138000
     36 HN17         7.9320    -0.0130     9.7830 hn         1 J75       0.313800
     37 HN1A         7.8160     0.8040     8.3720 hn         1 J75       0.313800
     38 HN21        -2.5750    -0.0010     1.9980 hn         1 J75       0.302800
     39 H22         -2.5290    -0.8830    -0.7050 h1         1 J75       0.036200
     40 H22A        -2.5290     0.8860    -0.7040 h1         1 J75       0.036200
     41 H24         -4.4240     2.1360     0.1560 ha         1 J75       0.107000
     42 H25         -6.8500     2.1370     0.5910 ha         1 J75       0.109000
     43 H26         -8.0650     0.0020     0.8090 ha         1 J75       0.108000
     44 H27         -6.8520    -2.1350     0.5850 ha         1 J75       0.109000
     45 H28         -4.4260    -2.1340     0.1460 ha         1 J75       0.107000
     46 H29          3.9520    -0.8860     2.8880 h1         1 J75       0.042700
     47 H29A         3.9520     0.8830     2.8890 h1         1 J75       0.042700
     48 H173         7.8110    -0.8240     8.3620 hn         1 J75       0.313800
@<TRIPOS>BOND
     1     1     2 ar  
     2     1     6 ar  
     3     2     3 ar  
     4     2    30 1   
     5     3     4 ar  
     6     4     5 ar  
     7     4     7 1   
     8     5     6 ar  
     9     5    18 1   
    10     6    21 1   
    11     7    29 1   
    12     7    31 1   
    13     8     9 ar  
    14     8    13 ar  
    15     8    29 1   
    16     9    10 ar  
    17     9    32 1   
    18    10    11 ar  
    19    10    33 1   
    20    11    12 ar  
    21    11    14 1   
    22    12    13 ar  
    23    12    34 1   
    24    13    35 1   
    25    14    15 2   
    26    14    16 2   
    27    14    17 1   
    28    17    36 1   
    29    17    37 1   
    30    17    48 1   
    31    18    19 1   
    32    18    20 1   
    33    21    22 1   
    34    21    38 1   
    35    22    23 1   
    36    22    39 1   
    37    22    40 1   
    38    23    24 ar  
    39    23    28 ar  
    40    24    25 ar  
    41    24    41 1   
    42    25    26 ar  
    43    25    42 1   
    44    26    27 ar  
    45    26    43 1   
    46    27    28 ar  
    47    27    44 1   
    48    28    45 1   
    49    29    46 1   
    50    29    47 1   
@<TRIPOS>SUBSTRUCTURE
     1 J75         1 TEMP              0 ****  ****    0 ROOT
