@<TRIPOS>MOLECULE
molecule
   48    50     1     0     0
SMALL
bcc


@<TRIPOS>ATOM
      1 N1           0.0000     0.0000     0.0000 nb         1 J75      -0.822000
      2 C2           1.3170     0.0000     0.0000 ca         1 J75       0.790900
      3 N3           2.0150     0.0000     1.1170 nb         1 J75      -0.852000
      4 C4           1.4060    -0.0010     2.3020 ca         1 J75       0.798200
      5 C5           0.0150    -0.0010     2.3470 ca         1 J75      -0.534800
      6 C6          -0.6830    -0.0010     1.1430 ca         1 J75       0.801200
      7 N7           2.1480    -0.0020     3.4730 nu         1 J75      -0.911900
      8 C8           4.1710    -0.0030     4.8130 ca         1 J75      -0.017300
      9 C9           4.4280    -1.2010     5.4530 ca         1 J75      -0.114000
     10 C10          4.9470    -1.2020     6.7350 ca         1 J75      -0.029000
     11 C11          5.2100    -0.0060     7.3750 ca         1 J75      -0.337500
     12 C12          4.9550     1.1920     6.7340 ca         1 J75      -0.029000
     13 C13          4.4340     1.1930     5.4530 ca         1 J75      -0.114000
     14 S14          5.8710    -0.0070     9.0080 sy         1 J75       1.225200
     15 O15          5.5200     1.2440     9.5840 o          1 J75      -0.514300
     16 O16          5.5120    -1.2550     9.5860 o          1 J75      -0.514300
     17 N17          7.5210    -0.0120     8.8700 nz         1 J75      -0.806500
     18 N18         -0.7030    -0.0020     3.6420 no         1 J75       0.292200
     19 O19         -0.9980     1.0520     4.1750 o          1 J75      -0.196000
     20 O20         -0.9980    -1.0570     4.1740 o          1 J75      -0.196000
     21 N21         -2.0690    -0.0000     1.1350 nu         1 J75      -0.876900
     22 C22         -2.7940     0.0010    -0.1380 c3         1 J75       0.286100
     23 C23         -4.2770     0.0010     0.1280 ca         1 J75      -0.135300
     24 C24         -4.9570     1.1980     0.2510 ca         1 J75      -0.107000
     25 C25         -6.3180     1.1990     0.4950 ca         1 J75      -0.128000
     26 C26         -6.9990     0.0010     0.6160 ca         1 J75      -0.109000
     27 C27         -6.3190    -1.1960     0.4920 ca         1 J75      -0.128000
     28 C28         -4.9580    -1.1960     0.2440 ca         1 J75      -0.107000
     29 C29          3.6120    -0.0020     3.4130 c3         1 J75       0.279100
     30 H2           1.8430     0.0010    -0.9470 h5         1 J75       0.073100
     31 HN7          1.6830     0.0100     4.3600 hn         1 J75       0.461800
     32 H9           4.2230    -2.1390     4.9510 ha         1 J75       0.172500
     33 H10          5.1480    -2.1410     7.2370 ha         1 J75       0.159000
     34 H12          5.1600     2.1300     7.2360 ha         1 J75       0.159000
     35 H13          4.2330     2.1320     4.9510 ha         1 J75       0.172500
     36 HN17         7.9320    -0.0130     9.7830 hn         1 J75       0.492467
     37 HN1A         7.8160     0.8040     8.3720 hn         1 J75       0.492467
     38 HN21        -2.5750    -0.0010     1.9980 hn         1 J75       0.465800
     39 H22         -2.5290    -0.8830    -0.7050 h1         1 J75       0.065700
     40 H22A        -2.5290     0.8860    -0.7040 h1         1 J75       0.065700
     41 H24         -4.4240     2.1360     0.1560 ha         1 J75       0.135000
     42 H25         -6.8500     2.1370     0.5910 ha         1 J75       0.138000
     43 H26         -8.0650     0.0020     0.8090 ha         1 J75       0.138000
     44 H27         -6.8520    -2.1350     0.5850 ha         1 J75       0.138000
     45 H28         -4.4260    -2.1340     0.1460 ha         1 J75       0.135000
     46 H29          3.9520    -0.8860     2.8880 h1         1 J75       0.076200
     47 H29A         3.9520     0.8830     2.8890 h1         1 J75       0.076200
     48 H173         7.8110    -0.8240     8.3620 hn         1 J75       0.492467
@<TRIPOS>BOND
     1     1     2 ar
     2     1     6 ar
     3     2     3 ar
     4     3     4 ar
     5     4     5 ar
     6     4     7 1
     7     5     6 ar
     8     5    18 1
     9     6    21 1
    10     7    29 1
    11     8     9 ar
    12     8    13 ar
    13     8    29 1
    14     9    10 ar
    15    10    11 ar
    16    11    12 ar
    17    11    14 1
    18    12    13 ar
    19    14    15 2
    20    14    16 2
    21    14    17 1
    22    18    19 1
    23    18    20 1
    24    21    22 1
    25    22    23 1
    26    23    24 ar
    27    23    28 ar
    28    24    25 ar
    29    25    26 ar
    30    26    27 ar
    31    27    28 ar
    32     2    30 1
    33     7    31 1
    34     9    32 1
    35    10    33 1
    36    12    34 1
    37    13    35 1
    38    17    36 1
    39    17    37 1
    40    21    38 1
    41    22    39 1
    42    22    40 1
    43    24    41 1
    44    25    42 1
    45    26    43 1
    46    27    44 1
    47    28    45 1
    48    29    46 1
    49    29    47 1
    50    48    17 1
@<TRIPOS>SUBSTRUCTURE
     1 J75         1 TEMP              0 ****  ****    0 ROOT
