@<TRIPOS>MOLECULE
J77
   54    56     1     0     0
SMALL
bcc


@<TRIPOS>ATOM
      1 C1           0.0000     0.0000     0.0000 c3         1 J77      -0.030400
      2 C2           1.5070     0.0000     0.0000 ca         1 J77       0.308600
      3 C3           2.2010     0.0000     1.2020 ca         1 J77      -0.163300
      4 C4           3.5860    -0.0000     1.1550 ca         1 J77      -0.195300
      5 C5           4.1960     0.0010    -0.1000 ca         1 J77       0.431200
      6 N4           3.4480     0.0060    -1.1920 nb         1 J77      -0.325000
      7 N3           2.1660     0.0020    -1.1410 nb         1 J77      -0.257000
      8 N6           5.5820     0.0010    -0.2010 nh         1 J77      -0.454300
      9 C7           5.9000     0.0030    -1.6330 c3         1 J77       0.132800
     10 C8           7.4180     0.0100    -1.8260 c3         1 J77      -0.029900
     11 C9           7.9990     1.2830    -1.2030 c3         1 J77      -0.051700
     12 C10          7.5700     1.3580     0.2660 c3         1 J77      -0.029900
     13 C11          6.0460     1.2790     0.3490 c3         1 J77       0.132800
     14 C12          9.5260     1.2440    -1.2910 c3         1 J77      -0.033400
     15 C13         10.1030     2.5170    -0.6680 c3         1 J77       0.164400
     16 O14         11.5300     2.4820    -0.7510 os         1 J77      -0.274900
     17 C15         11.9830     3.6290    -0.1870 ca         1 J77       0.169100
     18 C16         13.3490     3.8770    -0.1220 ca         1 J77      -0.205500
     19 C17         13.8150     5.0400     0.4510 ca         1 J77       0.001500
     20 C18         12.9100     5.9720     0.9660 ca         1 J77      -0.195600
     21 C19         11.5370     5.7160     0.9050 ca         1 J77       0.001500
     22 C20         11.0800     4.5530     0.3270 ca         1 J77      -0.205500
     23 C21         13.4040     7.2180     1.5790 c          1 J77       0.730700
     24 O22         14.5980     7.4360     1.6370 o          1 J77      -0.595000
     25 O23         12.5310     8.1160     2.0770 os         1 J77      -0.427900
     26 C24         13.0160     9.3440     2.6810 c3         1 J77       0.235400
     27 C25         11.8280    10.1800     3.1610 c3         1 J77      -0.003100
     28 H11         -0.3610    -0.8840     0.5120 hc         1 J77       0.015700
     29 H12         -0.3610    -0.0010    -1.0210 hc         1 J77       0.015700
     30 H13         -0.3610     0.8850     0.5100 hc         1 J77       0.015700
     31 H3           1.6750    -0.0010     2.1490 ha         1 J77       0.120000
     32 H4           4.1760    -0.0020     2.0630 ha         1 J77       0.128000
     33 H71          5.4750     0.8860    -2.0930 h1         1 J77       0.026700
     34 H72          5.4840    -0.8850    -2.0930 h1         1 J77       0.026700
     35 H81          7.8480    -0.8580    -1.3410 hc         1 J77       0.025700
     36 H82          7.6470    -0.0100    -2.8850 hc         1 J77       0.025700
     37 H9           7.6220     2.1490    -1.7340 hc         1 J77       0.030700
     38 H101         8.0050     0.5280     0.8100 hc         1 J77       0.025700
     39 H102         7.9080     2.2940     0.6930 hc         1 J77       0.025700
     40 H111         5.7400     1.3560     1.3860 h1         1 J77       0.026700
     41 H112         5.6140     2.0930    -0.2200 h1         1 J77       0.026700
     42 H121         9.8260     1.1820    -2.3300 hc         1 J77       0.028700
     43 H122         9.8960     0.3790    -0.7550 hc         1 J77       0.028700
     44 H131         9.7320     3.3820    -1.2030 h1         1 J77       0.017200
     45 H132         9.8030     2.5780     0.3710 h1         1 J77       0.017200
     46 H16         14.0500     3.1530    -0.5220 ha         1 J77       0.129000
     47 H17         14.8790     5.2330     0.4990 ha         1 J77       0.120000
     48 H19         10.8330     6.4360     1.3040 ha         1 J77       0.120000
     49 H20         10.0160     4.3550     0.2800 ha         1 J77       0.129000
     50 H241        13.5820     9.9070     1.9500 h1         1 J77       0.006700
     51 H242        13.6530     9.1050     3.5240 h1         1 J77       0.006700
     52 H251        11.1920    10.4200     2.3180 hc         1 J77       0.010367
     53 H252        12.1900    11.0960     3.6120 hc         1 J77       0.010367
     54 H253        11.2620     9.6170     3.8930 hc         1 J77       0.010367
@<TRIPOS>BOND
     1     1     2 1   
     2     1    28 1   
     3     1    29 1   
     4     1    30 1   
     5     2     3 ar  
     6     2     7 ar  
     7     3     4 ar  
     8     3    31 1   
     9     4     5 ar  
    10     4    32 1   
    11     5     6 ar  
    12     5     8 1   
    13     6     7 ar  
    14     8     9 1   
    15     8    13 1   
    16     9    10 1   
    17     9    33 1   
    18     9    34 1   
    19    10    11 1   
    20    10    35 1   
    21    10    36 1   
    22    11    12 1   
    23    11    14 1   
    24    11    37 1   
    25    12    13 1   
    26    12    38 1   
    27    12    39 1   
    28    13    40 1   
    29    13    41 1   
    30    14    15 1   
    31    14    42 1   
    32    14    43 1   
    33    15    16 1   
    34    15    44 1   
    35    15    45 1   
    36    16    17 1   
    37    17    18 ar  
    38    17    22 ar  
    39    18    19 ar  
    40    18    46 1   
    41    19    20 ar  
    42    19    47 1   
    43    20    21 ar  
    44    20    23 1   
    45    21    22 ar  
    46    21    48 1   
    47    22    49 1   
    48    23    24 2   
    49    23    25 1   
    50    25    26 1   
    51    26    27 1   
    52    26    50 1   
    53    26    51 1   
    54    27    52 1   
    55    27    53 1   
    56    27    54 1   
@<TRIPOS>SUBSTRUCTURE
     1 J77         1 TEMP              0 ****  ****    0 ROOT
