@<TRIPOS>MOLECULE
J78
   57    59     1     0     0
SMALL
bcc


@<TRIPOS>ATOM
      1 C1           0.0000     0.0000     0.0000 c3         1 J78      -0.030400
      2 C2           1.5060     0.0000     0.0000 ca         1 J78       0.307600
      3 C3           2.1990     0.0000     1.2040 ca         1 J78      -0.163300
      4 C4           3.5840     0.0010     1.1580 ca         1 J78      -0.195300
      5 C5           4.1950     0.0010    -0.0960 ca         1 J78       0.432200
      6 N4           3.4490     0.0060    -1.1890 nb         1 J78      -0.326000
      7 N3           2.1660     0.0010    -1.1390 nb         1 J78      -0.257000
      8 N6           5.5820     0.0010    -0.1970 nh         1 J78      -0.455300
      9 C7           5.9010     0.0010    -1.6270 c3         1 J78       0.132800
     10 C8           7.4180     0.0080    -1.8200 c3         1 J78      -0.029900
     11 C9           8.0000     1.2810    -1.1980 c3         1 J78      -0.053700
     12 C10          7.5700     1.3570     0.2700 c3         1 J78      -0.029900
     13 C11          6.0450     1.2790     0.3530 c3         1 J78       0.132800
     14 C12          9.5270     1.2440    -1.2840 c3         1 J78      -0.018400
     15 C13         10.1030     2.5160    -0.6620 c3         1 J78      -0.048400
     16 C14         11.6310     2.4780    -0.7490 c3         1 J78       0.174400
     17 O15         12.1710     3.6660    -0.1680 os         1 J78      -0.276900
     18 C16         13.5200     3.5760    -0.2730 ca         1 J78       0.168100
     19 C17         14.3230     4.6020     0.2130 ca         1 J78      -0.205000
     20 C18         15.6930     4.5140     0.1090 ca         1 J78       0.001000
     21 C19         16.2770     3.3930    -0.4880 ca         1 J78      -0.194600
     22 C20         15.4650     2.3680    -0.9810 ca         1 J78       0.001000
     23 C21         14.0960     2.4600    -0.8670 ca         1 J78      -0.205000
     24 C22         17.7440     3.2960    -0.6030 c          1 J78       0.731700
     25 O23         18.4470     4.1910    -0.1780 o          1 J78      -0.596000
     26 O24         18.3040     2.2150    -1.1780 os         1 J78      -0.426900
     27 C25         19.7480     2.1180    -1.2900 c3         1 J78       0.235400
     28 C26         20.1190     0.8030    -1.9770 c3         1 J78      -0.004100
     29 H11         -0.3610    -0.8850     0.5100 hc         1 J78       0.015700
     30 H12         -0.3610     0.0000    -1.0210 hc         1 J78       0.015700
     31 H13         -0.3610     0.8840     0.5110 hc         1 J78       0.015700
     32 H3           1.6730    -0.0010     2.1510 ha         1 J78       0.120000
     33 H4           4.1730    -0.0010     2.0670 ha         1 J78       0.128000
     34 H71          5.4860    -0.8880    -2.0870 h1         1 J78       0.026950
     35 H72          5.4770     0.8840    -2.0900 h1         1 J78       0.026950
     36 H81          7.8480    -0.8600    -1.3350 hc         1 J78       0.025450
     37 H82          7.6470    -0.0130    -2.8790 hc         1 J78       0.025450
     38 H9           7.6230     2.1470    -1.7290 hc         1 J78       0.031700
     39 H101         7.9080     2.2940     0.6960 hc         1 J78       0.025450
     40 H102         8.0040     0.5280     0.8160 hc         1 J78       0.025450
     41 H111         5.7380     1.3560     1.3890 h1         1 J78       0.026950
     42 H112         5.6130     2.0930    -0.2170 h1         1 J78       0.026950
     43 H121         9.8980     0.3790    -0.7470 hc         1 J78       0.018200
     44 H122         9.8280     1.1810    -2.3230 hc         1 J78       0.018200
     45 H131         9.7320     3.3810    -1.1990 hc         1 J78       0.028700
     46 H132         9.8020     2.5790     0.3760 hc         1 J78       0.028700
     47 H141        12.0010     1.6130    -0.2130 h1         1 J78       0.013700
     48 H142        11.9320     2.4150    -1.7880 h1         1 J78       0.013700
     49 H17         13.8700     5.4700     0.6760 ha         1 J78       0.129500
     50 H18         16.3180     5.3130     0.4900 ha         1 J78       0.120500
     51 H20         15.9120     1.4970    -1.4440 ha         1 J78       0.120500
     52 H21         13.4670     1.6650    -1.2490 ha         1 J78       0.129500
     53 H251        20.1900     2.1470    -0.3020 h1         1 J78       0.006700
     54 H252        20.1210     2.9490    -1.8770 h1         1 J78       0.006700
     55 H261        19.6770     0.7740    -2.9650 hc         1 J78       0.010367
     56 H262        21.1970     0.7310    -2.0610 hc         1 J78       0.010367
     57 H263        19.7470    -0.0280    -1.3900 hc         1 J78       0.010367
@<TRIPOS>BOND
     1     1     2 1   
     2     1    29 1   
     3     1    30 1   
     4     1    31 1   
     5     2     3 ar  
     6     2     7 ar  
     7     3     4 ar  
     8     3    32 1   
     9     4     5 ar  
    10     4    33 1   
    11     5     6 ar  
    12     5     8 1   
    13     6     7 ar  
    14     8     9 1   
    15     8    13 1   
    16     9    10 1   
    17     9    34 1   
    18     9    35 1   
    19    10    11 1   
    20    10    36 1   
    21    10    37 1   
    22    11    12 1   
    23    11    14 1   
    24    11    38 1   
    25    12    13 1   
    26    12    39 1   
    27    12    40 1   
    28    13    41 1   
    29    13    42 1   
    30    14    15 1   
    31    14    43 1   
    32    14    44 1   
    33    15    16 1   
    34    15    45 1   
    35    15    46 1   
    36    16    17 1   
    37    16    47 1   
    38    16    48 1   
    39    17    18 1   
    40    18    19 ar  
    41    18    23 ar  
    42    19    20 ar  
    43    19    49 1   
    44    20    21 ar  
    45    20    50 1   
    46    21    22 ar  
    47    21    24 1   
    48    22    23 ar  
    49    22    51 1   
    50    23    52 1   
    51    24    25 2   
    52    24    26 1   
    53    26    27 1   
    54    27    28 1   
    55    27    53 1   
    56    27    54 1   
    57    28    55 1   
    58    28    56 1   
    59    28    57 1   
@<TRIPOS>SUBSTRUCTURE
     1 J78         1 TEMP              0 ****  ****    0 ROOT
