@<TRIPOS>MOLECULE
J7C
   42    44     1     0     0
SMALL
bcc


@<TRIPOS>ATOM
      1 N1           0.0000     0.0000     0.0000 nb         1 J7C      -0.649000
      2 C2           1.3200     0.0000     0.0000 ca         1 J7C       0.651900
      3 N3           2.0270     0.0000     1.1100 nb         1 J7C      -0.611000
      4 C4           1.4260     0.0020     2.2960 ca         1 J7C       0.239800
      5 C5           0.0230     0.0030     2.3500 ca         1 J7C      -0.190200
      6 C6          -0.6880     0.0020     1.1380 ca         1 J7C       0.608200
      7 N6          -2.0730     0.0030     1.1280 nv         1 J7C      -0.645500
      8 N7          -0.3260     0.0040     3.6590 nc         1 J7C      -0.470100
      9 C8           0.7470     0.0040     4.3930 cd         1 J7C       0.245700
     10 N9           1.8550     0.0020     3.5990 na         1 J7C       0.185000
     11 C1'          3.2480     0.0010     4.0540 c3         1 J7C       0.168800
     12 C2'          3.8070     1.4460     4.1010 c3         1 J7C       0.134100
     13 O2'          4.3270     1.8330     2.8280 oh         1 J7C      -0.527800
     14 C3'          4.9420     1.3190     5.1460 c3         1 J7C       0.129100
     15 O3'          6.2050     1.1550     4.4950 oh         1 J7C      -0.541800
     16 C4'          4.5800     0.0540     5.9470 c3         1 J7C       0.163100
     17 O4'          3.3340    -0.4390     5.4260 os         1 J7C      -0.421600
     18 C5'          4.4220     0.4030     7.4280 c3         1 J7C      -0.033400
     19 C6'          4.1860    -0.8780     8.2320 c3         1 J7C       0.140800
     20 N7'          4.0350    -0.5430     9.6500 nu         1 J7C      -0.499200
     21 C8'          3.8120    -1.5390    10.5720 c2         1 J7C       0.256100
     22 N9'          3.6780    -1.2420    11.8330 n2         1 J7C      -0.611100
     23 N9+          3.7310    -2.8490    10.1610 nz         1 J7C       0.188400
     24 H2           1.8280    -0.0120    -0.9570 h5         1 J7C       0.006100
     25 HN6         -2.5730    -0.8640     1.1120 hn         1 J7C       0.286300
     26 HN6A        -2.5720     0.8700     1.1100 hn         1 J7C       0.286300
     27 H8           0.7600     0.0050     5.4760 h5         1 J7C       0.025800
     28 H1'          3.8630    -0.6230     3.4170 h2         1 J7C       0.076700
     29 H2'          3.0490     2.1400     4.4430 h1         1 J7C       0.025700
     30 HO2'         4.2220     2.7630     2.7150 ho         1 J7C       0.399000
     31 H3'          4.9540     2.1860     5.7960 h1         1 J7C       0.015700
     32 HO3'         6.8180     1.7860     4.8340 ho         1 J7C       0.397000
     33 H4'          5.3520    -0.6950     5.8200 h1         1 J7C       0.045700
     34 H5'          3.5770     1.0700     7.5540 hc         1 J7C       0.039200
     35 H5'A         5.3230     0.8910     7.7820 hc         1 J7C       0.039200
     36 H6'          3.2850    -1.3650     7.8780 h1         1 J7C       0.023200
     37 H6'A         5.0300    -1.5440     8.1060 h1         1 J7C       0.023200
     38 HN7'         4.0990     0.4100     9.9480 hn         1 J7C       0.342800
     39 HN9'         3.7370    -0.2880    12.1320 hn         1 J7C       0.379400
     40 HN9+         4.5850    -3.1100     9.7090 hn         1 J7C       0.227133
     41 HN9A         2.9690    -2.9510     9.5200 hn         1 J7C       0.227133
     42 H9+3         3.5800    -3.4380    10.9560 hn         1 J7C       0.227133
@<TRIPOS>BOND
     1     1     2 ar  
     2     1     6 ar  
     3     2     3 ar  
     4     2    24 1   
     5     3     4 ar  
     6     4     5 ar  
     7     4    10 1   
     8     5     6 ar  
     9     5     8 1   
    10     6     7 1   
    11     7    25 1   
    12     7    26 1   
    13     8     9 2   
    14     9    10 1   
    15     9    27 1   
    16    10    11 1   
    17    11    12 1   
    18    11    17 1   
    19    11    28 1   
    20    12    13 1   
    21    12    14 1   
    22    12    29 1   
    23    13    30 1   
    24    14    15 1   
    25    14    16 1   
    26    14    31 1   
    27    15    32 1   
    28    16    17 1   
    29    16    18 1   
    30    16    33 1   
    31    18    19 1   
    32    18    34 1   
    33    18    35 1   
    34    19    20 1   
    35    19    36 1   
    36    19    37 1   
    37    20    21 1   
    38    20    38 1   
    39    21    22 2   
    40    21    23 1   
    41    22    39 1   
    42    23    40 1   
    43    23    41 1   
    44    23    42 1   
@<TRIPOS>SUBSTRUCTURE
     1 J7C         1 TEMP              0 ****  ****    0 ROOT
