@<TRIPOS>MOLECULE
molecule
   40    42     1     0     0
SMALL
bcc


@<TRIPOS>ATOM
      1 C2           0.0000     0.0000     0.0000 c          1 J7G       0.746100
      2 C11          2.0460    -0.1170    -1.2040 ca         1 J7G       0.071600
      3 C12          3.3330     0.3940    -1.3320 ca         1 J7G      -0.274300
      4 C13          3.9970     0.2510    -2.5500 ca         1 J7G       0.611300
      5 C15          2.1900    -0.8580    -3.4780 ca         1 J7G       0.457200
      6 C16          1.4720    -0.7540    -2.3040 ca         1 J7G      -0.308300
      7 C18          5.3230     0.7710    -2.7020 cg         1 J7G      -0.318000
      8 C19          6.4030     1.2160    -2.8210 ch         1 J7G       0.038000
      9 C20          7.7430     1.5500    -2.8710 ca         1 J7G      -0.138000
     10 C21          8.4450     1.2500    -4.3480 ca         1 J7G      -0.024000
     11 C22          9.9410     1.5570    -4.6030 ca         1 J7G      -0.038600
     12 C23         10.4020     2.0620    -3.4280 ca         1 J7G      -0.098000
     13 C24          9.9290     2.4000    -2.0160 ca         1 J7G      -0.180000
     14 C25          8.6410     2.0950    -1.9220 ca         1 J7G      -0.053000
     15 C26         10.3380     1.2700    -5.6480 c          1 J7G       0.836200
     16 N1           1.3490     0.0000     0.0000 ns         1 J7G      -0.467100
     17 N3          -0.6740     0.0000     1.1670 ns         1 J7G      -0.487100
     18 O4          -0.6080     0.0060    -1.0530 o          1 J7G      -0.633100
     19 C5          -2.0660    -0.0920     1.1690 ca         1 J7G       0.142600
     20 C6          -2.7350    -0.7850     2.1760 ca         1 J7G      -0.279300
     21 C7          -4.1140    -0.8530     2.1420 ca         1 J7G       0.500300
     22 N8          -4.7950    -0.2720     1.1700 nb         1 J7G      -0.711000
     23 C9          -4.1970     0.3920     0.2000 ca         1 J7G       0.455200
     24 C10         -2.8240     0.5110     0.1660 ca         1 J7G      -0.256300
     25 N14          3.4090    -0.3640    -3.5730 nb         1 J7G      -0.682000
     26 Cl7         -4.9610    -1.7120     3.3890 cl         1 J7G      -0.165000
     27 O27         11.7960     0.9310    -5.8110 o          1 J7G      -0.827800
     28 O28          9.7560     1.1300    -6.5750 o          1 J7G      -0.827800
     29 H1           3.7330     1.0200    -0.5440 ha         1 J7G       0.143000
     30 H2           1.7300    -1.5240    -4.1970 h4         1 J7G       0.025100
     31 H3           0.4760    -1.0240    -1.9720 ha         1 J7G       0.187000
     32 H4           7.9600     0.6250    -5.0880 ha         1 J7G       0.152000
     33 H5          11.4780     2.0860    -3.5520 ha         1 J7G       0.129000
     34 H6          10.5890     2.9470    -1.3540 ha         1 J7G       0.152000
     35 H7           8.2260     2.5300    -1.0200 ha         1 J7G       0.081000
     36 H8           1.7140    -0.1970     0.9110 hn         1 J7G       0.316500
     37 H9          -0.0420     0.2870     1.8880 hn         1 J7G       0.326500
     38 H10         -2.6280    -1.1310     3.1970 ha         1 J7G       0.165000
     39 H11         -4.8790     0.9820    -0.4020 h4         1 J7G       0.035100
     40 H12         -2.2120     0.9410    -0.6180 ha         1 J7G       0.199000
@<TRIPOS>BOND
     1    24    23 ar
     2    24    19 ar
     3    23    22 ar
     4     6     5 ar
     5     6     2 ar
     6    17    19 1
     7    17     1 1
     8    19    20 ar
     9    22    21 ar
    10    16     1 1
    11    16     2 1
    12     5    25 ar
    13     1    18 2
    14     2     3 ar
    15    20    21 ar
    16    21    26 1
    17    25     4 ar
    18     3     4 ar
    19     4     7 1
    20     7     8 3
    21     8     9 1
    22     9    14 ar
    23     9    10 ar
    24    14    13 ar
    25    10    11 ar
    26    13    12 ar
    27    11    12 ar
    28    11    15 1
    29    28    15 1
    30    15    27 1
    31     3    29 1
    32     5    30 1
    33     6    31 1
    34    10    32 1
    35    12    33 1
    36    13    34 1
    37    14    35 1
    38    16    36 1
    39    17    37 1
    40    20    38 1
    41    23    39 1
    42    24    40 1
@<TRIPOS>SUBSTRUCTURE
     1 J7G         1 TEMP              0 ****  ****    0 ROOT
