@<TRIPOS>MOLECULE
J7J
   41    44     1     0     0
SMALL
bcc


@<TRIPOS>ATOM
      1 C1           0.0000     0.0000     0.0000 c2         1 J7J      -0.123000
      2 C2           1.3910     0.0000     0.0000 c2         1 J7J      -0.106000
      3 C3           1.3030     0.0000     2.3980 c2         1 J7J      -0.099000
      4 C12          1.2970     1.4300    -6.8890 c2         1 J7J       0.117000
      5 C13          2.1130     0.8530    -5.9240 c2         1 J7J      -0.199000
      6 C14          1.6040     0.8760    -4.6660 c2         1 J7J      -0.245000
      7 C17          1.6960     1.4770    -8.2640 c1         1 J7J      -0.147000
      8 C18          2.0360     1.5290    -9.3860 c1         1 J7J      -0.054000
      9 C19          2.3220     1.3760   -11.0630 ca         1 J7J       0.107000
     10 C20          2.2970     2.2810   -11.9490 ca         1 J7J      -0.088000
     11 C21          2.5110     2.2130   -13.2610 ca         1 J7J      -0.083000
     12 C22          2.0440     0.9510   -13.7550 ca         1 J7J      -0.075000
     13 C23          1.9990    -0.1890   -12.9810 ca         1 J7J      -0.100000
     14 C24          1.7180     0.0660   -11.7290 ca         1 J7J      -0.078000
     15 C26          2.8150     3.3940   -14.2420 c3         1 J7J       0.221000
     16 N4          -0.0160    -0.0040     2.3510 n2         1 J7J      -0.008000
     17 C5          -0.6740     0.0000     1.2070 c2         1 J7J      -0.119000
     18 C6           2.0530     0.0000     1.2340 c2         1 J7J      -0.086000
     19 Cl7         -2.4100     0.0070     1.2180 cl         1 J7J       0.083000
     20 N8           2.1090    -0.0010    -1.1990 nu         1 J7J       0.029000
     21 C9           1.5440     0.4820    -2.3230 c3         1 J7J       0.184000
     22 O10          0.4510     1.0130    -2.2740 o          1 J7J      -0.429000
     23 N11          0.1490     1.9270    -6.4990 n2         1 J7J      -0.159000
     24 S15          0.0330     1.6810    -4.8250 ss         1 J7J       0.352000
     25 N16          2.1890     0.3760    -3.5010 nu         1 J7J       0.106000
     26 O27          3.9720     3.7180   -14.4500 oh         1 J7J      -0.287000
     27 N28          3.4530     0.0040     1.2890 nv         1 J7J       0.014000
     28 H1          -0.5420     0.0000    -0.9380 ha         1 J7J       0.167000
     29 H2           1.8110    -0.0040     3.3550 h4         1 J7J       0.126000
     30 H3           2.3800     3.2660   -11.5080 ha         1 J7J       0.087000
     31 H4           2.2070     0.7970   -14.8150 ha         1 J7J       0.085000
     32 H5           1.6150    -1.0960   -13.4330 ha         1 J7J       0.107000
     33 H6           1.4940    -0.7440   -11.0450 ha         1 J7J       0.091000
     34 H7           2.2980     4.2680   -13.8640 h1         1 J7J      -0.026000
     35 H8           2.3740     3.1400   -15.1990 h1         1 J7J      -0.026000
     36 H9           2.4910     0.8530    -1.5540 DU         1 J7J       0.113000
     37 H10          2.0170    -0.5690    -3.2210 hn         1 J7J       0.105000
     38 H11          3.9930     4.4220   -15.0770 ho         1 J7J       0.210000
     39 H12          3.9270     0.6290     1.9110 hn         1 J7J       0.071000
     40 H13          3.9790    -0.6080     0.6980 hn         1 J7J       0.071000
     41 Br2          3.7970     0.0940    -6.3300 br         1 J7J       0.091000
@<TRIPOS>BOND
     1     1     2 1   
     2     1    17 1   
     3     1    28 1   
     4     2    18 1   
     5     2    20 1   
     6     3    16 1   
     7     3    18 1   
     8     3    29 1   
     9     4     5 1   
    10     4     7 1   
    11     4    23 1   
    12     5     6 1   
    13     5    41 1   
    14     6    24 1   
    15     6    25 1   
    16     7     8 1   
    17     8     9 1   
    18     9    10 1   
    19     9    14 1   
    20    10    11 1   
    21    10    30 1   
    22    11    12 1   
    23    11    15 1   
    24    12    13 1   
    25    12    31 1   
    26    13    14 1   
    27    13    32 1   
    28    14    33 1   
    29    15    26 1   
    30    15    34 1   
    31    15    35 1   
    32    16    17 1   
    33    17    19 1   
    34    18    27 1   
    35    20    21 1   
    36    20    36 1   
    37    21    22 1   
    38    21    25 1   
    39    21    36 1   
    40    23    24 1   
    41    25    37 1   
    42    26    38 1   
    43    27    39 1   
    44    27    40 1   
@<TRIPOS>SUBSTRUCTURE
     1 J7J         1 TEMP              0 ****  ****    0 ROOT
