@<TRIPOS>MOLECULE
molecule
   41    43     1     0     0
SMALL
bcc


@<TRIPOS>ATOM
      1 C1           0.0000     0.0000     0.0000 ca         1 J7J      -0.209300
      2 C2           1.3910     0.0000     0.0000 ca         1 J7J      -0.030400
      3 C3           1.3030     0.0000     2.3980 ca         1 J7J       0.392200
      4 C12          1.2970     1.4300    -6.8890 cc         1 J7J       0.527300
      5 C13          2.1130     0.8530    -5.9240 cc         1 J7J      -0.152200
      6 C14          1.6040     0.8760    -4.6660 cd         1 J7J       0.060500
      7 C17          1.6960     1.4770    -8.2640 cg         1 J7J      -0.232000
      8 C18          2.0360     1.5290    -9.3860 ch         1 J7J      -0.050000
      9 C19          2.3220     1.3760   -11.0630 ca         1 J7J       0.071000
     10 C20          2.2970     2.2810   -11.9490 ca         1 J7J      -0.097000
     11 C21          2.5110     2.2130   -13.2610 ca         1 J7J      -0.075300
     12 C22          2.0440     0.9510   -13.7550 ca         1 J7J      -0.104000
     13 C23          1.9990    -0.1890   -12.9810 ca         1 J7J      -0.119000
     14 C24          1.7180     0.0660   -11.7290 ca         1 J7J      -0.102000
     15 C26          2.8150     3.3940   -14.2420 c3         1 J7J       0.273700
     16 N4          -0.0160    -0.0040     2.3510 nb         1 J7J      -0.660000
     17 C5          -0.6740     0.0000     1.2070 ca         1 J7J       0.492300
     18 C6           2.0530     0.0000     1.2340 ca         1 J7J       0.078300
     19 Cl7         -2.4100     0.0070     1.2180 cl         1 J7J      -0.150000
     20 N8           2.1090    -0.0010    -1.1990 ns         1 J7J      -0.352100
     21 C9           1.5440     0.4820    -2.3230 c          1 J7J       0.624100
     22 O10          0.4510     1.0130    -2.2740 o          1 J7J      -0.637100
     23 N11          0.1490     1.9270    -6.4990 nd         1 J7J      -0.460100
     24 S15          0.0330     1.6810    -4.8250 ss         1 J7J       0.194200
     25 N16          2.1890     0.3760    -3.5010 ns         1 J7J      -0.324100
     26 O27          3.9720     3.7180   -14.4500 oh         1 J7J      -0.570800
     27 N28          3.4530     0.0040     1.2890 nv         1 J7J      -0.942200
     28 H1          -0.5420     0.0000    -0.9380 ha         1 J7J       0.186000
     29 H2           1.8110    -0.0040     3.3550 h4         1 J7J       0.037100
     30 H3           2.3800     3.2660   -11.5080 ha         1 J7J       0.114000
     31 H4           2.2070     0.7970   -14.8150 ha         1 J7J       0.115000
     32 H5           1.6150    -1.0960   -13.4330 ha         1 J7J       0.138000
     33 H6           1.4940    -0.7440   -11.0450 ha         1 J7J       0.125000
     34 H7           2.2980     4.2680   -13.8640 h1         1 J7J      -0.031300
     35 H8           2.3740     3.1400   -15.1990 h1         1 J7J      -0.031300
     36 H9           2.4910     0.8530    -1.5540 hn         1 J7J       0.304500
     37 H10          2.0170    -0.5690    -3.2210 hn         1 J7J       0.310500
     38 H11          3.9930     4.4220   -15.0770 ho         1 J7J       0.438000
     39 H12          3.9270     0.6290     1.9110 hn         1 J7J       0.439800
     40 H13          3.9790    -0.6080     0.6980 hn         1 J7J       0.439800
     41 Br2          3.7970     0.0940    -6.3300 br         1 J7J      -0.033100
@<TRIPOS>BOND
     1    27    18 1
     2    41     5 1
     3    18     3 ar
     4    18     2 ar
     5    13    14 ar
     6    13    12 ar
     7    14     9 ar
     8     3    16 ar
     9    20     2 1
    10    20    21 1
    11    25    21 1
    12    25     6 1
    13     5     6 2
    14     5     4 1
    15     2     1 ar
    16    12    11 ar
    17    21    22 2
    18     6    24 1
    19    16    17 ar
    20     9     8 1
    21     9    10 ar
    22     8     7 3
    23     7     4 1
    24     4    23 2
    25     1    17 ar
    26    17    19 1
    27    11    10 ar
    28    11    15 1
    29    24    23 1
    30    15    26 1
    31     1    28 1
    32     3    29 1
    33    10    30 1
    34    12    31 1
    35    13    32 1
    36    14    33 1
    37    15    34 1
    38    15    35 1
    39    20    36 1
    40    25    37 1
    41    26    38 1
    42    27    39 1
    43    27    40 1
@<TRIPOS>SUBSTRUCTURE
     1 J7J         1 TEMP              0 ****  ****    0 ROOT
