@<TRIPOS>MOLECULE
molecule
   60    62     1     0     0
SMALL
bcc


@<TRIPOS>ATOM
      1 C1           0.0000     0.0000     0.0000 c3         1 J80      -0.136400
      2 C2           1.5070     0.0000     0.0000 ca         1 J80       0.335600
      3 C3           2.2000     0.0000     1.2020 ca         1 J80      -0.197300
      4 C4           3.5850    -0.0010     1.1540 ca         1 J80      -0.213300
      5 C5           4.1960    -0.0010    -0.0990 ca         1 J80       0.514200
      6 N4           3.4480     0.0050    -1.1920 nb         1 J80      -0.358000
      7 N3           2.1650     0.0000    -1.1410 nb         1 J80      -0.300000
      8 N6           5.5820    -0.0010    -0.2010 nh         1 J80      -0.648300
      9 C7           5.8990    -0.0010    -1.6320 c3         1 J80       0.146300
     10 C8           7.4170     0.0060    -1.8260 c3         1 J80      -0.078400
     11 C9           7.9990     1.2790    -1.2040 c3         1 J80      -0.076700
     12 C10          7.5710     1.3540     0.2650 c3         1 J80      -0.078400
     13 C11          6.0460     1.2780     0.3490 c3         1 J80       0.146300
     14 C12          9.5260     1.2410    -1.2920 c3         1 J80      -0.074400
     15 C13         10.1050     2.5130    -0.6700 c3         1 J80      -0.083400
     16 C14         11.6300     2.4740    -0.7580 c3         1 J80      -0.086400
     17 C15         12.2100     3.7470    -0.1370 c3         1 J80       0.112400
     18 O16         13.6350     3.7110    -0.2190 os         1 J80      -0.292900
     19 C17         14.0900     4.8590     0.3450 ca         1 J80       0.153100
     20 C18         15.4560     5.1060     0.4100 ca         1 J80      -0.211500
     21 C19         15.9220     6.2690     0.9810 ca         1 J80      -0.034500
     22 C20         15.0170     7.2020     1.4960 ca         1 J80      -0.172600
     23 C21         13.6450     6.9470     1.4340 ca         1 J80      -0.034500
     24 C22         13.1880     5.7840     0.8580 ca         1 J80      -0.211500
     25 C23         15.5110     8.4490     2.1080 c          1 J80       0.658700
     26 O24         16.7060     8.6660     2.1650 o          1 J80      -0.557000
     27 O25         14.6380     9.3460     2.6050 os         1 J80      -0.444900
     28 C26         15.1240    10.5750     3.2080 c3         1 J80       0.155400
     29 C27         13.9370    11.4130     3.6870 c3         1 J80      -0.096100
     30 H11         -0.3610    -0.8840     0.5110 hc         1 J80       0.054367
     31 H12         -0.3610     0.8850     0.5100 hc         1 J80       0.054367
     32 H13         -0.3610    -0.0010    -1.0210 hc         1 J80       0.054367
     33 H3           1.6740     0.0000     2.1490 ha         1 J80       0.147000
     34 H4           4.1750    -0.0030     2.0630 ha         1 J80       0.153000
     35 H71          5.4750     0.8810    -2.0940 h1         1 J80       0.052450
     36 H72          5.4840    -0.8900    -2.0920 h1         1 J80       0.052450
     37 H81          7.8470    -0.8620    -1.3400 hc         1 J80       0.053200
     38 H82          7.6460    -0.0150    -2.8850 hc         1 J80       0.053200
     39 H9           7.6220     2.1440    -1.7350 hc         1 J80       0.051700
     40 H101         7.9090     2.2910     0.6910 hc         1 J80       0.053200
     41 H102         8.0040     0.5250     0.8100 hc         1 J80       0.053200
     42 H111         5.6140     2.0910    -0.2220 h1         1 J80       0.052450
     43 H112         5.7390     1.3550     1.3850 h1         1 J80       0.052450
     44 H121         9.8970     0.3750    -0.7560 hc         1 J80       0.047200
     45 H122         9.8260     1.1780    -2.3310 hc         1 J80       0.047200
     46 H131         9.7340     3.3780    -1.2060 hc         1 J80       0.043200
     47 H132         9.8040     2.5750     0.3690 hc         1 J80       0.043200
     48 H141        11.9300     2.4110    -1.7970 hc         1 J80       0.057200
     49 H142        12.0010     1.6090    -0.2220 hc         1 J80       0.057200
     50 H151        11.9090     3.8100     0.9020 h1         1 J80       0.043200
     51 H152        11.8390     4.6120    -0.6730 h1         1 J80       0.043200
     52 H18         16.1560     4.3820     0.0100 ha         1 J80       0.148500
     53 H19         16.9870     6.4620     1.0280 ha         1 J80       0.154500
     54 H21         12.9410     7.6670     1.8330 ha         1 J80       0.154500
     55 H22         12.1240     5.5860     0.8100 ha         1 J80       0.148500
     56 H261        15.6910    11.1370     2.4760 h1         1 J80       0.047700
     57 H262        15.7610    10.3360     4.0510 h1         1 J80       0.047700
     58 H271        13.3710    10.8500     4.4200 hc         1 J80       0.047033
     59 H272        14.3000    12.3290     4.1380 hc         1 J80       0.047033
     60 H273        13.3010    11.6520     2.8440 hc         1 J80       0.047033
@<TRIPOS>BOND
     1     1     2 1
     2     1    30 1
     3     1    31 1
     4     1    32 1
     5     2     3 ar
     6     2     7 ar
     7     3     4 ar
     8     3    33 1
     9     4     5 ar
    10     4    34 1
    11     5     6 ar
    12     5     8 1
    13     6     7 ar
    14     8     9 1
    15     8    13 1
    16     9    10 1
    17     9    35 1
    18     9    36 1
    19    10    11 1
    20    10    37 1
    21    10    38 1
    22    11    12 1
    23    11    14 1
    24    11    39 1
    25    12    13 1
    26    12    40 1
    27    12    41 1
    28    13    42 1
    29    13    43 1
    30    14    15 1
    31    14    44 1
    32    14    45 1
    33    15    16 1
    34    15    46 1
    35    15    47 1
    36    16    17 1
    37    16    48 1
    38    16    49 1
    39    17    18 1
    40    17    50 1
    41    17    51 1
    42    18    19 1
    43    19    20 ar
    44    19    24 ar
    45    20    21 ar
    46    20    52 1
    47    21    22 ar
    48    21    53 1
    49    22    23 ar
    50    22    25 1
    51    23    24 ar
    52    23    54 1
    53    24    55 1
    54    25    26 2
    55    25    27 1
    56    27    28 1
    57    28    29 1
    58    28    56 1
    59    28    57 1
    60    29    58 1
    61    29    59 1
    62    29    60 1
@<TRIPOS>SUBSTRUCTURE
     1 J80         1 TEMP              0 ****  ****    0 ROOT
