@<TRIPOS>MOLECULE
J81
  103   103     1     0     0
SMALL
bcc


@<TRIPOS>ATOM
      1 C9           0.0000     0.0000     0.0000 c3         1 J81       0.005900
      2 C8           1.5310     0.0000     0.0000 c3         1 J81      -0.028400
      3 C7           2.0410     0.0000     1.4430 c3         1 J81      -0.029400
      4 C6           3.5710     0.0000     1.4420 c3         1 J81      -0.029400
      5 C5           4.0810     0.0000     2.8840 c3         1 J81      -0.028400
      6 C4           5.6110    -0.0010     2.8840 c3         1 J81      -0.029400
      7 C3           6.1220    -0.0010     4.3270 c3         1 J81      -0.022400
      8 C2           7.6510    -0.0010     4.3270 c3         1 J81      -0.042400
      9 C1           8.1620    -0.0000     5.7690 c3         1 J81       0.049000
     10 N2           9.6260    -0.0010     5.7690 ns         1 J81      -0.201900
     11 C18         10.3010    -0.0000     6.9350 c          1 J81       0.569100
     12 O            9.6950    -0.0000     7.9870 o          1 J81      -0.649100
     13 C19         11.8080    -0.0010     6.9350 c3         1 J81      -0.095400
     14 C20         12.3180    -0.0010     8.3780 c3         1 J81      -0.014400
     15 C21         13.8480    -0.0000     8.3770 c3         1 J81      -0.065400
     16 C22         14.3580    -0.0000     9.8190 c3         1 J81       0.166100
     17 O3          13.9810    -1.2220    10.4590 oh         1 J81      -0.599800
     18 C23         15.8830     0.1250     9.8210 c3         1 J81       0.170100
     19 O2          16.2610     1.3460     9.1820 oh         1 J81      -0.577800
     20 C24         16.3940     0.1250    11.2640 c3         1 J81       0.010700
     21 C25         17.9010     0.3880    11.2710 c3         1 J81       0.183400
     22 O5          18.5570    -0.5790    10.4480 os         1 J81      -0.439600
     23 C28         19.9760    -0.4210    10.3870 c3         1 J81       0.379900
     24 O9          20.5500    -0.7710    11.6480 os         1 J81      -0.395600
     25 C27         20.2710    -2.1100    12.0650 c3         1 J81       0.164100
     26 C26         20.9070    -2.3610    13.4340 c3         1 J81       0.222400
     27 O8          20.2840    -1.5230    14.4100 oh         1 J81      -0.579800
     28 C31         20.8500    -3.0930    11.0440 c3         1 J81       0.138100
     29 O7          22.2700    -2.9440    10.9920 oh         1 J81      -0.566800
     30 C30         20.2530    -2.7950     9.6650 c3         1 J81       0.156100
     31 O4          20.8430    -3.6600     8.6920 oh         1 J81      -0.578800
     32 C29         20.5440    -1.3370     9.2990 c3         1 J81       0.153100
     33 O6          19.9290    -1.0270     8.0460 oh         1 J81      -0.577800
     34 N1          16.1220    -1.1770    11.8780 ns         1 J81      -0.174900
     35 C17         16.0020    -1.2790    13.2160 c          1 J81       0.570100
     36 O1          16.1190    -0.2930    13.9130 o          1 J81      -0.655100
     37 C10         15.7220    -2.6180    13.8480 c3         1 J81      -0.094400
     38 C11         15.6340    -2.4580    15.3670 c3         1 J81      -0.016400
     39 C12         15.3500    -3.8170    16.0080 c3         1 J81      -0.031400
     40 C13         15.2620    -3.6560    17.5270 c3         1 J81      -0.027400
     41 C14         14.9780    -5.0170    18.1690 c3         1 J81      -0.030400
     42 C15         14.8900    -4.8550    19.6870 c3         1 J81      -0.028400
     43 C16         14.6060    -6.2150    20.3290 c3         1 J81       0.005900
     44 H1          -0.3610    -0.9080     0.4680 hc         1 J81       0.000367
     45 H2          -0.3610     0.0490    -1.0200 hc         1 J81       0.000367
     46 H3          -0.3610     0.8590     0.5530 hc         1 J81       0.000367
     47 H4           1.8920    -0.8850    -0.5110 hc         1 J81       0.011700
     48 H5           1.8920     0.8850    -0.5110 hc         1 J81       0.011700
     49 H6           1.6800     0.8840     1.9530 hc         1 J81       0.015200
     50 H7           1.6800    -0.8850     1.9530 hc         1 J81       0.015200
     51 H8           3.9320    -0.8840     0.9310 hc         1 J81       0.014700
     52 H9           3.9320     0.8850     0.9310 hc         1 J81       0.014700
     53 H10          3.7190    -0.8840     3.3950 hc         1 J81       0.015700
     54 H11          3.7210     0.8850     3.3950 hc         1 J81       0.015700
     55 H12          5.9710    -0.8860     2.3730 hc         1 J81       0.014700
     56 H13          5.9720     0.8830     2.3730 hc         1 J81       0.014700
     57 H14          5.7610    -0.8850     4.8380 hc         1 J81       0.018700
     58 H15          5.7610     0.8840     4.8370 hc         1 J81       0.018700
     59 H16          8.0120     0.8840     3.8160 hc         1 J81       0.016200
     60 H17          8.0120    -0.8850     3.8160 hc         1 J81       0.016200
     61 H18          7.8010     0.8840     6.2790 h1         1 J81       0.027700
     62 H19          7.8010    -0.8850     6.2800 h1         1 J81       0.027700
     63 H20         10.1260    -0.0010     4.9020 hn         1 J81       0.172500
     64 H21         12.1690    -0.8850     6.4250 hc         1 J81       0.026700
     65 H22         12.1690     0.8840     6.4240 hc         1 J81       0.026700
     66 H23         11.9570     0.8840     8.8890 hc         1 J81       0.030700
     67 H24         11.9570    -0.8850     8.8890 hc         1 J81       0.030700
     68 H25         14.2090     0.8840     7.8660 hc         1 J81       0.024200
     69 H26         14.2090    -0.8850     7.8670 hc         1 J81       0.024200
     70 H27         13.9260     0.8360    10.3550 h1         1 J81       0.021700
     71 H28         13.1710    -1.0960    10.9240 ho         1 J81       0.403000
     72 H29         16.3140    -0.7110     9.2850 h1         1 J81       0.027700
     73 H30         16.5970     1.1590     8.3210 ho         1 J81       0.398000
     74 H31         15.8890     0.9020    11.8250 h1         1 J81       0.068700
     75 H32         18.2750     0.3130    12.2850 h1         1 J81       0.023700
     76 H33         18.0960     1.3810    10.8860 h1         1 J81       0.023700
     77 H34         20.2210     0.6080    10.1540 h2         1 J81       0.032700
     78 H35         19.1980    -2.2500    12.1290 h1         1 J81       0.033700
     79 H36         20.7720    -3.3990    13.7100 h1         1 J81      -0.004300
     80 H37         21.9650    -2.1350    13.3860 h1         1 J81      -0.004300
     81 H38         20.7790    -1.5540    15.2120 ho         1 J81       0.390000
     82 H39         20.5980    -4.1050    11.3350 h1         1 J81       0.005700
     83 H40         22.6760    -3.7950    11.0090 ho         1 J81       0.391000
     84 H41         19.1820    -2.9530     9.6950 h1         1 J81       0.025700
     85 H42         20.2200    -4.3200     8.4380 ho         1 J81       0.390000
     86 H43         21.6150    -1.1900     9.2280 h1         1 J81       0.041700
     87 H44         20.5870    -0.7350     7.4370 ho         1 J81       0.393000
     88 H45         16.0400    -1.9930    11.3050 hn         1 J81       0.186500
     89 H46         14.7840    -3.0060    13.4710 hc         1 J81       0.024200
     90 H47         16.5220    -3.3070    13.6040 hc         1 J81       0.024200
     91 H48         16.5730    -2.0700    15.7440 hc         1 J81       0.031700
     92 H49         14.8350    -1.7690    15.6110 hc         1 J81       0.031700
     93 H50         16.1500    -4.5050    15.7640 hc         1 J81       0.010200
     94 H51         14.4120    -4.2050    15.6310 hc         1 J81       0.010200
     95 H52         16.2000    -3.2680    17.9050 hc         1 J81       0.017200
     96 H53         14.4610    -2.9680    17.7720 hc         1 J81       0.017200
     97 H54         15.7790    -5.7050    17.9240 hc         1 J81       0.013200
     98 H55         14.0400    -5.4050    17.7920 hc         1 J81       0.013200
     99 H56         14.0910    -4.1660    19.9320 hc         1 J81       0.012700
    100 H57         15.8290    -4.4670    20.0650 hc         1 J81       0.012700
    101 H58         14.4460    -6.0870    21.3930 hc         1 J81      -0.000633
    102 H59         13.7190    -6.6480    19.8810 hc         1 J81      -0.000633
    103 H60         15.4500    -6.8750    20.1670 hc         1 J81      -0.000633
@<TRIPOS>BOND
     1     1     2 1   
     2     1    44 1   
     3     1    45 1   
     4     1    46 1   
     5     2     3 1   
     6     2    47 1   
     7     2    48 1   
     8     3     4 1   
     9     3    49 1   
    10     3    50 1   
    11     4     5 1   
    12     4    51 1   
    13     4    52 1   
    14     5     6 1   
    15     5    53 1   
    16     5    54 1   
    17     6     7 1   
    18     6    55 1   
    19     6    56 1   
    20     7     8 1   
    21     7    57 1   
    22     7    58 1   
    23     8     9 1   
    24     8    59 1   
    25     8    60 1   
    26     9    10 1   
    27     9    61 1   
    28     9    62 1   
    29    10    11 1   
    30    10    63 1   
    31    11    12 2   
    32    11    13 1   
    33    13    14 1   
    34    13    64 1   
    35    13    65 1   
    36    14    15 1   
    37    14    66 1   
    38    14    67 1   
    39    15    16 1   
    40    15    68 1   
    41    15    69 1   
    42    16    17 1   
    43    16    18 1   
    44    16    70 1   
    45    17    71 1   
    46    18    19 1   
    47    18    20 1   
    48    18    72 1   
    49    19    73 1   
    50    20    21 1   
    51    20    34 1   
    52    20    74 1   
    53    21    22 1   
    54    21    75 1   
    55    21    76 1   
    56    22    23 1   
    57    23    24 1   
    58    23    32 1   
    59    23    77 1   
    60    24    25 1   
    61    25    26 1   
    62    25    28 1   
    63    25    78 1   
    64    26    27 1   
    65    26    79 1   
    66    26    80 1   
    67    27    81 1   
    68    28    29 1   
    69    28    30 1   
    70    28    82 1   
    71    29    83 1   
    72    30    31 1   
    73    30    32 1   
    74    30    84 1   
    75    31    85 1   
    76    32    33 1   
    77    32    86 1   
    78    33    87 1   
    79    34    35 1   
    80    34    88 1   
    81    35    36 2   
    82    35    37 1   
    83    37    38 1   
    84    37    89 1   
    85    37    90 1   
    86    38    39 1   
    87    38    91 1   
    88    38    92 1   
    89    39    40 1   
    90    39    93 1   
    91    39    94 1   
    92    40    41 1   
    93    40    95 1   
    94    40    96 1   
    95    41    42 1   
    96    41    97 1   
    97    41    98 1   
    98    42    43 1   
    99    42    99 1   
   100    42   100 1   
   101    43   101 1   
   102    43   102 1   
   103    43   103 1   
@<TRIPOS>SUBSTRUCTURE
     1 J81         1 TEMP              0 ****  ****    0 ROOT
