@<TRIPOS>MOLECULE
molecule
  103   103     1     0     0
SMALL
bcc


@<TRIPOS>ATOM
      1 C9           0.0000     0.0000     0.0000 c3         1 J81      -0.092100
      2 C8           1.5310     0.0000     0.0000 c3         1 J81      -0.084400
      3 C7           2.0410     0.0000     1.4430 c3         1 J81      -0.081400
      4 C6           3.5710     0.0000     1.4420 c3         1 J81      -0.082400
      5 C5           4.0810     0.0000     2.8840 c3         1 J81      -0.081400
      6 C4           5.6110    -0.0010     2.8840 c3         1 J81      -0.081400
      7 C3           6.1220    -0.0010     4.3270 c3         1 J81      -0.078400
      8 C2           7.6510    -0.0010     4.3270 c3         1 J81      -0.101400
      9 C1           8.1620    -0.0000     5.7690 c3         1 J81       0.111000
     10 N2           9.6260    -0.0010     5.7690 ns         1 J81      -0.588900
     11 C18         10.3010    -0.0000     6.9350 c          1 J81       0.655100
     12 O            9.6950    -0.0000     7.9870 o          1 J81      -0.611100
     13 C19         11.8080    -0.0010     6.9350 c3         1 J81      -0.156400
     14 C20         12.3180    -0.0010     8.3780 c3         1 J81      -0.066400
     15 C21         13.8480    -0.0000     8.3770 c3         1 J81      -0.112400
     16 C22         14.3580    -0.0000     9.8190 c3         1 J81       0.129100
     17 O3          13.9810    -1.2220    10.4590 oh         1 J81      -0.613800
     18 C23         15.8830     0.1250     9.8210 c3         1 J81       0.136100
     19 O2          16.2610     1.3460     9.1820 oh         1 J81      -0.599800
     20 C24         16.3940     0.1250    11.2640 c3         1 J81       0.124700
     21 C25         17.9010     0.3880    11.2710 c3         1 J81       0.116400
     22 O5          18.5570    -0.5790    10.4480 os         1 J81      -0.453600
     23 C28         19.9760    -0.4210    10.3870 c3         1 J81       0.327900
     24 O9          20.5500    -0.7710    11.6480 os         1 J81      -0.408600
     25 C27         20.2710    -2.1100    12.0650 c3         1 J81       0.148100
     26 C26         20.9070    -2.3610    13.4340 c3         1 J81       0.148400
     27 O8          20.2840    -1.5230    14.4100 oh         1 J81      -0.597800
     28 C31         20.8500    -3.0930    11.0440 c3         1 J81       0.099100
     29 O7          22.2700    -2.9440    10.9920 oh         1 J81      -0.587800
     30 C30         20.2530    -2.7950     9.6650 c3         1 J81       0.123100
     31 O4          20.8430    -3.6600     8.6920 oh         1 J81      -0.599800
     32 C29         20.5440    -1.3370     9.2990 c3         1 J81       0.132100
     33 O6          19.9290    -1.0270     8.0460 oh         1 J81      -0.596800
     34 N1          16.1220    -1.1770    11.8780 ns         1 J81      -0.566900
     35 C17         16.0020    -1.2790    13.2160 c          1 J81       0.658100
     36 O1          16.1190    -0.2930    13.9130 o          1 J81      -0.616100
     37 C10         15.7220    -2.6180    13.8480 c3         1 J81      -0.154400
     38 C11         15.6340    -2.4580    15.3670 c3         1 J81      -0.067400
     39 C12         15.3500    -3.8170    16.0080 c3         1 J81      -0.085400
     40 C13         15.2620    -3.6560    17.5270 c3         1 J81      -0.080400
     41 C14         14.9780    -5.0170    18.1690 c3         1 J81      -0.082400
     42 C15         14.8900    -4.8550    19.6870 c3         1 J81      -0.084400
     43 C16         14.6060    -6.2150    20.3290 c3         1 J81      -0.092100
     44 H1          -0.3610    -0.9080     0.4680 hc         1 J81       0.032700
     45 H2          -0.3610     0.0490    -1.0200 hc         1 J81       0.032700
     46 H3          -0.3610     0.8590     0.5530 hc         1 J81       0.032700
     47 H4           1.8920    -0.8850    -0.5110 hc         1 J81       0.039700
     48 H5           1.8920     0.8850    -0.5110 hc         1 J81       0.039700
     49 H6           1.6800     0.8840     1.9530 hc         1 J81       0.041700
     50 H7           1.6800    -0.8850     1.9530 hc         1 J81       0.041700
     51 H8           3.9320    -0.8840     0.9310 hc         1 J81       0.040700
     52 H9           3.9320     0.8850     0.9310 hc         1 J81       0.040700
     53 H10          3.7190    -0.8840     3.3950 hc         1 J81       0.042700
     54 H11          3.7210     0.8850     3.3950 hc         1 J81       0.042700
     55 H12          5.9710    -0.8860     2.3730 hc         1 J81       0.041700
     56 H13          5.9720     0.8830     2.3730 hc         1 J81       0.041700
     57 H14          5.7610    -0.8850     4.8380 hc         1 J81       0.046200
     58 H15          5.7610     0.8840     4.8370 hc         1 J81       0.046200
     59 H16          8.0120     0.8840     3.8160 hc         1 J81       0.044700
     60 H17          8.0120    -0.8850     3.8160 hc         1 J81       0.044700
     61 H18          7.8010     0.8840     6.2790 h1         1 J81       0.053700
     62 H19          7.8010    -0.8850     6.2800 h1         1 J81       0.053700
     63 H20         10.1260    -0.0010     4.9020 hn         1 J81       0.311500
     64 H21         12.1690    -0.8850     6.4250 hc         1 J81       0.058700
     65 H22         12.1690     0.8840     6.4240 hc         1 J81       0.058700
     66 H23         11.9570     0.8840     8.8890 hc         1 J81       0.059700
     67 H24         11.9570    -0.8850     8.8890 hc         1 J81       0.059700
     68 H25         14.2090     0.8840     7.8660 hc         1 J81       0.051200
     69 H26         14.2090    -0.8850     7.8670 hc         1 J81       0.051200
     70 H27         13.9260     0.8360    10.3550 h1         1 J81       0.051700
     71 H28         13.1710    -1.0960    10.9240 ho         1 J81       0.412000
     72 H29         16.3140    -0.7110     9.2850 h1         1 J81       0.061700
     73 H30         16.5970     1.1590     8.3210 ho         1 J81       0.412000
     74 H31         15.8890     0.9020    11.8250 h1         1 J81       0.095700
     75 H32         18.2750     0.3130    12.2850 h1         1 J81       0.056700
     76 H33         18.0960     1.3810    10.8860 h1         1 J81       0.056700
     77 H34         20.2210     0.6080    10.1540 h2         1 J81       0.082700
     78 H35         19.1980    -2.2500    12.1290 h1         1 J81       0.067700
     79 H36         20.7720    -3.3990    13.7100 h1         1 J81       0.034200
     80 H37         21.9650    -2.1350    13.3860 h1         1 J81       0.034200
     81 H38         20.7790    -1.5540    15.2120 ho         1 J81       0.404000
     82 H39         20.5980    -4.1050    11.3350 h1         1 J81       0.039700
     83 H40         22.6760    -3.7950    11.0090 ho         1 J81       0.405000
     84 H41         19.1820    -2.9530     9.6950 h1         1 J81       0.061700
     85 H42         20.2200    -4.3200     8.4380 ho         1 J81       0.404000
     86 H43         21.6150    -1.1900     9.2280 h1         1 J81       0.079700
     87 H44         20.5870    -0.7350     7.4370 ho         1 J81       0.407000
     88 H45         16.0400    -1.9930    11.3050 hn         1 J81       0.325500
     89 H46         14.7840    -3.0060    13.4710 hc         1 J81       0.056700
     90 H47         16.5220    -3.3070    13.6040 hc         1 J81       0.056700
     91 H48         16.5730    -2.0700    15.7440 hc         1 J81       0.059700
     92 H49         14.8350    -1.7690    15.6110 hc         1 J81       0.059700
     93 H50         16.1500    -4.5050    15.7640 hc         1 J81       0.036700
     94 H51         14.4120    -4.2050    15.6310 hc         1 J81       0.036700
     95 H52         16.2000    -3.2680    17.9050 hc         1 J81       0.044200
     96 H53         14.4610    -2.9680    17.7720 hc         1 J81       0.044200
     97 H54         15.7790    -5.7050    17.9240 hc         1 J81       0.039700
     98 H55         14.0400    -5.4050    17.7920 hc         1 J81       0.039700
     99 H56         14.0910    -4.1660    19.9320 hc         1 J81       0.040700
    100 H57         15.8290    -4.4670    20.0650 hc         1 J81       0.040700
    101 H58         14.4460    -6.0870    21.3930 hc         1 J81       0.032033
    102 H59         13.7190    -6.6480    19.8810 hc         1 J81       0.032033
    103 H60         15.4500    -6.8750    20.1670 hc         1 J81       0.032033
@<TRIPOS>BOND
     1     1     2 1
     2     2     3 1
     3     3     4 1
     4     4     5 1
     5     5     6 1
     6     6     7 1
     7     7     8 1
     8     8     9 1
     9     9    10 1
    10    10    11 1
    11    12    11 2
    12    11    13 1
    13    43    42 1
    14    14    13 1
    15    14    15 1
    16    42    41 1
    17    15    16 1
    18    41    40 1
    19    17    16 1
    20    16    18 1
    21    40    39 1
    22    19    18 1
    23    39    38 1
    24    18    20 1
    25    20    34 1
    26    20    21 1
    27    36    35 2
    28    35    34 1
    29    35    37 1
    30    38    37 1
    31    21    22 1
    32    22    23 1
    33    33    32 1
    34    23    32 1
    35    23    24 1
    36    32    30 1
    37    24    25 1
    38    30    28 1
    39    30    31 1
    40    25    28 1
    41    25    26 1
    42    27    26 1
    43    28    29 1
    44     1    44 1
    45     1    45 1
    46     1    46 1
    47     2    47 1
    48     2    48 1
    49     3    49 1
    50     3    50 1
    51     4    51 1
    52     4    52 1
    53     5    53 1
    54     5    54 1
    55     6    55 1
    56     6    56 1
    57     7    57 1
    58     7    58 1
    59     8    59 1
    60     8    60 1
    61     9    61 1
    62     9    62 1
    63    10    63 1
    64    13    64 1
    65    13    65 1
    66    14    66 1
    67    14    67 1
    68    15    68 1
    69    15    69 1
    70    16    70 1
    71    17    71 1
    72    18    72 1
    73    19    73 1
    74    20    74 1
    75    21    75 1
    76    21    76 1
    77    23    77 1
    78    25    78 1
    79    26    79 1
    80    26    80 1
    81    27    81 1
    82    28    82 1
    83    29    83 1
    84    30    84 1
    85    31    85 1
    86    32    86 1
    87    33    87 1
    88    34    88 1
    89    37    89 1
    90    37    90 1
    91    38    91 1
    92    38    92 1
    93    39    93 1
    94    39    94 1
    95    40    95 1
    96    40    96 1
    97    41    97 1
    98    41    98 1
    99    42    99 1
   100    42   100 1
   101    43   101 1
   102    43   102 1
   103    43   103 1
@<TRIPOS>SUBSTRUCTURE
     1 J81         1 TEMP              0 ****  ****    0 ROOT
