@<TRIPOS>MOLECULE
molecule
   48    51     1     0     0
SMALL
bcc


@<TRIPOS>ATOM
      1 C1           0.0000     0.0000     0.0000 cc         1 J82       0.443600
      2 N2          -0.6950     0.0000    -1.1930 nh         1 J82      -0.713400
      3 C3          -2.0030     0.6640    -1.3070 c3         1 J82       0.204300
      4 C4          -1.9710     1.5870    -2.5300 c3         1 J82       0.118900
      5 O5          -1.5360     0.8430    -3.6700 os         1 J82      -0.423600
      6 C6          -0.2070     0.3250    -3.5580 c3         1 J82       0.118900
      7 C7          -0.1460    -0.6580    -2.3890 c3         1 J82       0.204300
      8 N8           1.3430     0.0000     0.0000 nc         1 J82      -0.642300
      9 C9           2.0200     0.0000     1.1150 cd         1 J82       0.506900
     10 N10          1.4070    -0.0010     2.3150 ns         1 J82      -0.455400
     11 C11          0.0600    -0.0000     2.3930 c          1 J82       0.703700
     12 C12         -0.6830     0.0040     1.2040 cd         1 J82      -0.409200
     13 O13         -0.5000    -0.0020     3.4770 o          1 J82      -0.658500
     14 C14          3.5260     0.0010     1.0580 c3         1 J82      -0.197700
     15 C15          3.9750     0.0010    -0.3810 c          1 J82       0.672100
     16 O16          3.1520     0.0010    -1.2720 o          1 J82      -0.529100
     17 N17          5.2900     0.0020    -0.6750 n          1 J82      -0.375000
     18 C18          7.3710     0.0030    -1.8420 c3         1 J82      -0.041100
     19 C19          5.8460     0.0020    -2.0320 c3         1 J82       0.117700
     20 C20          7.5690     0.0070    -0.3420 ca         1 J82      -0.132300
     21 C21          6.3230     0.0080     0.2660 ca         1 J82       0.055600
     22 C22          6.2490     0.0150     1.6600 ca         1 J82      -0.186000
     23 C23          7.4020     0.0210     2.4170 ca         1 J82      -0.093000
     24 C24          8.6400     0.0210     1.8000 ca         1 J82      -0.153000
     25 C25          8.7200     0.0140     0.4200 ca         1 J82      -0.079000
     26 C26          5.4040     1.2580    -2.7870 c3         1 J82      -0.106100
     27 H12         -1.7660     0.0050     1.2270 ha         1 J82       0.167000
     28 H31C        -2.1930     1.2490    -0.4150 h1         1 J82       0.064700
     29 H32C        -2.7790    -0.0810    -1.4340 h1         1 J82       0.064700
     30 H71C        -0.7360    -1.5370    -2.6230 h1         1 J82       0.064700
     31 H72C         0.8830    -0.9420    -2.2080 h1         1 J82       0.064700
     32 H41C        -2.9650     1.9780    -2.7130 h1         1 J82       0.056200
     33 H42C        -1.2830     2.4040    -2.3480 h1         1 J82       0.056200
     34 H61C         0.4830     1.1410    -3.3800 h1         1 J82       0.056200
     35 H62C         0.0590    -0.1870    -4.4750 h1         1 J82       0.056200
     36 H10          1.9540    -0.0020     3.1530 hn         1 J82       0.329500
     37 H141         3.9070    -0.8830     1.5550 hc         1 J82       0.091700
     38 H142         3.9050     0.8860     1.5550 hc         1 J82       0.091700
     39 H19          5.5360    -0.8900    -2.5620 h1         1 J82       0.070700
     40 H181         7.8050    -0.8900    -2.2760 hc         1 J82       0.065200
     41 H182         7.8050     0.8940    -2.2810 hc         1 J82       0.065200
     42 H261         6.0720     1.4310    -3.6210 hc         1 J82       0.050700
     43 H262         4.3940     1.1210    -3.1550 hc         1 J82       0.050700
     44 H263         5.4320     2.1100    -2.1180 hc         1 J82       0.050700
     45 H25          9.6880     0.0140    -0.0650 ha         1 J82       0.135000
     46 H22          5.2830     0.0150     2.1500 ha         1 J82       0.131000
     47 H23          7.3380     0.0270     3.4980 ha         1 J82       0.135000
     48 H24          9.5440     0.0260     2.3970 ha         1 J82       0.136000
@<TRIPOS>BOND
     1     1     2 1
     2     1     8 1
     3     1    12 2
     4     2     3 1
     5     2     7 1
     6     3     4 1
     7     4     5 1
     8     5     6 1
     9     6     7 1
    10     8     9 2
    11     9    10 1
    12     9    14 1
    13    10    11 1
    14    11    12 1
    15    11    13 2
    16    14    15 1
    17    15    16 2
    18    15    17 1
    19    17    19 1
    20    17    21 1
    21    18    19 1
    22    18    20 1
    23    19    26 1
    24    20    21 ar
    25    20    25 ar
    26    21    22 ar
    27    22    23 ar
    28    23    24 ar
    29    24    25 ar
    30    12    27 1
    31     3    28 1
    32     3    29 1
    33     7    30 1
    34     7    31 1
    35     4    32 1
    36     4    33 1
    37     6    34 1
    38     6    35 1
    39    10    36 1
    40    14    37 1
    41    14    38 1
    42    19    39 1
    43    18    40 1
    44    18    41 1
    45    26    42 1
    46    26    43 1
    47    26    44 1
    48    25    45 1
    49    22    46 1
    50    23    47 1
    51    24    48 1
@<TRIPOS>SUBSTRUCTURE
     1 J82         1 TEMP              0 ****  ****    0 ROOT
