@<TRIPOS>MOLECULE
J82
   48    51     1     0     0
SMALL
bcc


@<TRIPOS>ATOM
      1 C1           0.0000     0.0000     0.0000 cc         1 J82       0.273600
      2 N2          -0.6950     0.0000    -1.1930 nh         1 J82      -0.351400
      3 C3          -2.0030     0.6640    -1.3070 c3         1 J82       0.130800
      4 C4          -1.9710     1.5870    -2.5300 c3         1 J82       0.196400
      5 O5          -1.5360     0.8430    -3.6700 os         1 J82      -0.408600
      6 C6          -0.2070     0.3250    -3.5580 c3         1 J82       0.196400
      7 C7          -0.1460    -0.6580    -2.3890 c3         1 J82       0.130800
      8 N8           1.3430     0.0000     0.0000 nc         1 J82      -0.521300
      9 C9           2.0200     0.0000     1.1150 cd         1 J82       0.292900
     10 N10          1.4070    -0.0010     2.3150 ns         1 J82       0.020600
     11 C11          0.0600    -0.0000     2.3930 c          1 J82       0.611700
     12 C12         -0.6830     0.0040     1.2040 cd         1 J82      -0.409200
     13 O13         -0.5000    -0.0020     3.4770 o          1 J82      -0.703500
     14 C14          3.5260     0.0010     1.0580 c3         1 J82      -0.147700
     15 C15          3.9750     0.0010    -0.3810 c          1 J82       0.580100
     16 O16          3.1520     0.0010    -1.2720 o          1 J82      -0.577100
     17 N17          5.2900     0.0020    -0.6750 n          1 J82       0.015000
     18 C18          7.3710     0.0030    -1.8420 c3         1 J82       0.033900
     19 C19          5.8460     0.0020    -2.0320 c3         1 J82       0.023700
     20 C20          7.5690     0.0070    -0.3420 ca         1 J82      -0.139300
     21 C21          6.3230     0.0080     0.2660 ca         1 J82      -0.077400
     22 C22          6.2490     0.0150     1.6600 ca         1 J82      -0.171000
     23 C23          7.4020     0.0210     2.4170 ca         1 J82      -0.064000
     24 C24          8.6400     0.0210     1.8000 ca         1 J82      -0.124000
     25 C25          8.7200     0.0140     0.4200 ca         1 J82      -0.045000
     26 C26          5.4040     1.2580    -2.7870 c3         1 J82      -0.016100
     27 H12         -1.7660     0.0050     1.2270 ha         1 J82       0.153000
     28 H31C        -2.1930     1.2490    -0.4150 h1         1 J82       0.037450
     29 H32C        -2.7790    -0.0810    -1.4340 h1         1 J82       0.037450
     30 H71C        -0.7360    -1.5370    -2.6230 h1         1 J82       0.037450
     31 H72C         0.8830    -0.9420    -2.2080 h1         1 J82       0.037450
     32 H41C        -2.9650     1.9780    -2.7130 h1         1 J82       0.015700
     33 H42C        -1.2830     2.4040    -2.3480 h1         1 J82       0.015700
     34 H61C         0.4830     1.1410    -3.3800 h1         1 J82       0.015700
     35 H62C         0.0590    -0.1870    -4.4750 h1         1 J82       0.015700
     36 H10          1.9540    -0.0020     3.1530 hn         1 J82       0.173500
     37 H141         3.9070    -0.8830     1.5550 hc         1 J82       0.055700
     38 H142         3.9050     0.8860     1.5550 hc         1 J82       0.055700
     39 H19          5.5360    -0.8900    -2.5620 h1         1 J82       0.041700
     40 H181         7.8050    -0.8900    -2.2760 hc         1 J82       0.032700
     41 H182         7.8050     0.8940    -2.2810 hc         1 J82       0.032700
     42 H261         6.0720     1.4310    -3.6210 hc         1 J82       0.018367
     43 H262         4.3940     1.1210    -3.1550 hc         1 J82       0.018367
     44 H263         5.4320     2.1100    -2.1180 hc         1 J82       0.018367
     45 H25          9.6880     0.0140    -0.0650 ha         1 J82       0.104000
     46 H22          5.2830     0.0150     2.1500 ha         1 J82       0.122000
     47 H23          7.3380     0.0270     3.4980 ha         1 J82       0.104000
     48 H24          9.5440     0.0260     2.3970 ha         1 J82       0.109000
@<TRIPOS>BOND
     1     1     2 1   
     2     1     8 1   
     3     1    12 2   
     4     2     3 1   
     5     2     7 1   
     6     3     4 1   
     7     3    28 1   
     8     3    29 1   
     9     4     5 1   
    10     4    32 1   
    11     4    33 1   
    12     5     6 1   
    13     6     7 1   
    14     6    34 1   
    15     6    35 1   
    16     7    30 1   
    17     7    31 1   
    18     8     9 2   
    19     9    10 1   
    20     9    14 1   
    21    10    11 1   
    22    10    36 1   
    23    11    12 1   
    24    11    13 2   
    25    12    27 1   
    26    14    15 1   
    27    14    37 1   
    28    14    38 1   
    29    15    16 2   
    30    15    17 1   
    31    17    19 1   
    32    17    21 1   
    33    18    19 1   
    34    18    20 1   
    35    18    40 1   
    36    18    41 1   
    37    19    26 1   
    38    19    39 1   
    39    20    21 ar  
    40    20    25 ar  
    41    21    22 ar  
    42    22    23 ar  
    43    22    46 1   
    44    23    24 ar  
    45    23    47 1   
    46    24    25 ar  
    47    24    48 1   
    48    25    45 1   
    49    26    42 1   
    50    26    43 1   
    51    26    44 1   
@<TRIPOS>SUBSTRUCTURE
     1 J82         1 TEMP              0 ****  ****    0 ROOT
