@<TRIPOS>MOLECULE
molecule
   47    51     1     0     0
SMALL
bcc


@<TRIPOS>ATOM
      1 O1           0.0000     0.0000     0.0000 oh         1 J88      -0.356500
      2 N2           1.4160     0.0000     0.0000 n2         1 J88      -0.359200
      3 C3           2.0670     0.0000     1.1280 cc         1 J88       0.381900
      4 C4           1.5000     0.0000     2.5020 c          1 J88       0.599200
      5 O5           0.3200    -0.0010     2.7900 o          1 J88      -0.573500
      6 N6           2.5270    -0.0000     3.3680 n          1 J88      -0.366000
      7 C7           2.3780    -0.0000     4.8260 c3         1 J88       0.171300
      8 C8           2.3260    -1.4210     5.3250 ca         1 J88      -0.121300
      9 C9           1.1110    -2.0020     5.6270 ca         1 J88      -0.108000
     10 C10          1.0630    -3.3080     6.0870 ca         1 J88       0.104900
     11 F11         -0.1260    -3.8770     6.3810 f          1 J88      -0.135900
     12 C12          2.2330    -4.0300     6.2440 ca         1 J88      -0.121000
     13 C13          3.4520    -3.4500     5.9420 ca         1 J88      -0.180300
     14 C14          4.7200    -4.2460     6.1210 c3         1 J88       0.187700
     15 O15          5.7850    -3.6030     5.4130 os         1 J88      -0.424600
     16 C16          5.8690    -2.1990     5.6800 c3         1 J88       0.336200
     17 O17          4.6920    -1.5650     5.1720 os         1 J88      -0.351900
     18 C18          3.5000    -2.1470     5.4750 ca         1 J88       0.149100
     19 C19          3.7530     0.0010     2.7070 ca         1 J88       0.084600
     20 C20          5.0580     0.0000     3.1860 ca         1 J88      -0.149000
     21 C21          6.1250     0.0010     2.3080 ca         1 J88      -0.088000
     22 C22          5.9180     0.0010     0.9430 ca         1 J88      -0.151000
     23 C23          4.6190     0.0010     0.4380 cp         1 J88       0.041000
     24 C24          3.5350    -0.0060     1.3240 ca         1 J88      -0.182900
     25 C25          4.3870     0.0020    -1.0260 cp         1 J88      -0.053000
     26 C26          5.0430     0.9270    -1.8380 ca         1 J88      -0.098000
     27 C27          4.8230     0.9230    -3.2000 ca         1 J88      -0.133500
     28 C28          3.9540     0.0030    -3.7610 ca         1 J88      -0.121000
     29 C29          3.3010    -0.9160    -2.9600 ca         1 J88      -0.133500
     30 C30          3.5170    -0.9250    -1.5980 ca         1 J88      -0.098000
     31 HO1         -0.3140     0.2960    -0.8380 ho         1 J88       0.430000
     32 H7           3.2210     0.5100     5.2760 h1         1 J88       0.074200
     33 H7A          1.4610     0.5110     5.0950 h1         1 J88       0.074200
     34 H9           0.1960    -1.4320     5.5200 ha         1 J88       0.165000
     35 H12          2.1940    -5.0510     6.6040 ha         1 J88       0.148000
     36 H14          4.5770    -5.2450     5.7280 h1         1 J88       0.065700
     37 H14A         4.9670    -4.2980     7.1740 h1         1 J88       0.065700
     38 H16          5.9160    -2.0470     6.7520 h2         1 J88       0.069200
     39 H16A         6.7350    -1.7950     5.1690 h2         1 J88       0.069200
     40 H20          5.2400     0.0000     4.2540 ha         1 J88       0.153000
     41 H21          7.1370     0.0010     2.6950 ha         1 J88       0.133000
     42 H22          6.7630     0.0010     0.2650 ha         1 J88       0.142000
     43 H26          5.7230     1.6470    -1.4000 ha         1 J88       0.136500
     44 H27          5.3320     1.6410    -3.8320 ha         1 J88       0.130000
     45 H28          3.7830     0.0050    -4.8310 ha         1 J88       0.128000
     46 H29          2.6230    -1.6350    -3.4050 ha         1 J88       0.130000
     47 H30          3.0040    -1.6460    -0.9720 ha         1 J88       0.136500
@<TRIPOS>BOND
     1     1     2 1
     2     2     3 2
     3     3     4 1
     4     3    24 1
     5     4     5 2
     6     4     6 1
     7     6     7 1
     8     6    19 1
     9     7     8 1
    10     8     9 ar
    11     8    18 ar
    12     9    10 ar
    13    10    11 1
    14    10    12 ar
    15    12    13 ar
    16    13    14 1
    17    13    18 ar
    18    14    15 1
    19    15    16 1
    20    16    17 1
    21    17    18 1
    22    19    20 ar
    23    19    24 ar
    24    20    21 ar
    25    21    22 ar
    26    22    23 ar
    27    23    24 ar
    28    23    25 1
    29    25    26 ar
    30    25    30 ar
    31    26    27 ar
    32    27    28 ar
    33    28    29 ar
    34    29    30 ar
    35     1    31 1
    36     7    32 1
    37     7    33 1
    38     9    34 1
    39    12    35 1
    40    14    36 1
    41    14    37 1
    42    16    38 1
    43    16    39 1
    44    20    40 1
    45    21    41 1
    46    22    42 1
    47    26    43 1
    48    27    44 1
    49    28    45 1
    50    29    46 1
    51    30    47 1
@<TRIPOS>SUBSTRUCTURE
     1 J88         1 TEMP              0 ****  ****    0 ROOT
