@<TRIPOS>MOLECULE
J88
   47    51     1     0     0
SMALL
bcc


@<TRIPOS>ATOM
      1 O1           0.0000     0.0000     0.0000 oh         1 J88      -0.337500
      2 N2           1.4160     0.0000     0.0000 n2         1 J88      -0.302200
      3 C3           2.0670     0.0000     1.1280 cc         1 J88       0.342900
      4 C4           1.5000     0.0000     2.5020 c          1 J88       0.521200
      5 O5           0.3200    -0.0010     2.7900 o          1 J88      -0.624500
      6 N6           2.5270    -0.0000     3.3680 n          1 J88       0.027000
      7 C7           2.3780    -0.0000     4.8260 c3         1 J88       0.113300
      8 C8           2.3260    -1.4210     5.3250 ca         1 J88      -0.141300
      9 C9           1.1110    -2.0020     5.6270 ca         1 J88      -0.069000
     10 C10          1.0630    -3.3080     6.0870 ca         1 J88       0.073900
     11 F11         -0.1260    -3.8770     6.3810 f          1 J88      -0.124900
     12 C12          2.2330    -4.0300     6.2440 ca         1 J88      -0.081000
     13 C13          3.4520    -3.4500     5.9420 ca         1 J88      -0.197300
     14 C14          4.7200    -4.2460     6.1210 c3         1 J88       0.285700
     15 O15          5.7850    -3.6030     5.4130 os         1 J88      -0.420600
     16 C16          5.8690    -2.1990     5.6800 c3         1 J88       0.430200
     17 O17          4.6920    -1.5650     5.1720 os         1 J88      -0.331900
     18 C18          3.5000    -2.1470     5.4750 ca         1 J88       0.168100
     19 C19          3.7530     0.0010     2.7070 ca         1 J88      -0.063400
     20 C20          5.0580     0.0000     3.1860 ca         1 J88      -0.133000
     21 C21          6.1250     0.0010     2.3080 ca         1 J88      -0.060000
     22 C22          5.9180     0.0010     0.9430 ca         1 J88      -0.127000
     23 C23          4.6190     0.0010     0.4380 cp         1 J88       0.052000
     24 C24          3.5350    -0.0060     1.3240 ca         1 J88      -0.185900
     25 C25          4.3870     0.0020    -1.0260 cp         1 J88      -0.048000
     26 C26          5.0430     0.9270    -1.8380 ca         1 J88      -0.076000
     27 C27          4.8230     0.9230    -3.2000 ca         1 J88      -0.106500
     28 C28          3.9540     0.0030    -3.7610 ca         1 J88      -0.097000
     29 C29          3.3010    -0.9160    -2.9600 ca         1 J88      -0.106500
     30 C30          3.5170    -0.9250    -1.5980 ca         1 J88      -0.076000
     31 HO1         -0.3140     0.2960    -0.8380 ho         1 J88       0.414000
     32 H7           3.2210     0.5100     5.2760 h1         1 J88       0.041700
     33 H7A          1.4610     0.5110     5.0950 h1         1 J88       0.041700
     34 H9           0.1960    -1.4320     5.5200 ha         1 J88       0.136000
     35 H12          2.1940    -5.0510     6.6040 ha         1 J88       0.120000
     36 H14          4.9670    -4.2980     7.1740 h1         1 J88       0.020200
     37 H14A         4.5770    -5.2450     5.7280 h1         1 J88       0.020200
     38 H16          5.9160    -2.0470     6.7520 h2         1 J88       0.015200
     39 H16A         6.7350    -1.7950     5.1690 h2         1 J88       0.015200
     40 H20          5.2400     0.0000     4.2540 ha         1 J88       0.132000
     41 H21          7.1370     0.0010     2.6950 ha         1 J88       0.100000
     42 H22          6.7630     0.0010     0.2650 ha         1 J88       0.115000
     43 H26          5.7230     1.6470    -1.4000 ha         1 J88       0.110000
     44 H27          5.3320     1.6410    -3.8320 ha         1 J88       0.102000
     45 H28          3.7830     0.0050    -4.8310 ha         1 J88       0.100000
     46 H29          2.6230    -1.6350    -3.4050 ha         1 J88       0.102000
     47 H30          3.0040    -1.6460    -0.9720 ha         1 J88       0.110000
@<TRIPOS>BOND
     1     1     2 1   
     2     1    31 1   
     3     2     3 2   
     4     3     4 1   
     5     3    24 1   
     6     4     5 2   
     7     4     6 1   
     8     6     7 1   
     9     6    19 1   
    10     7     8 1   
    11     7    32 1   
    12     7    33 1   
    13     8     9 ar  
    14     8    18 ar  
    15     9    10 ar  
    16     9    34 1   
    17    10    11 1   
    18    10    12 ar  
    19    12    13 ar  
    20    12    35 1   
    21    13    14 1   
    22    13    18 ar  
    23    14    15 1   
    24    14    36 1   
    25    14    37 1   
    26    15    16 1   
    27    16    17 1   
    28    16    38 1   
    29    16    39 1   
    30    17    18 1   
    31    19    20 ar  
    32    19    24 ar  
    33    20    21 ar  
    34    20    40 1   
    35    21    22 ar  
    36    21    41 1   
    37    22    23 ar  
    38    22    42 1   
    39    23    24 ar  
    40    23    25 1   
    41    25    26 ar  
    42    25    30 ar  
    43    26    27 ar  
    44    26    43 1   
    45    27    28 ar  
    46    27    44 1   
    47    28    29 ar  
    48    28    45 1   
    49    29    30 ar  
    50    29    46 1   
    51    30    47 1   
@<TRIPOS>SUBSTRUCTURE
     1 J88         1 TEMP              0 ****  ****    0 ROOT
