@<TRIPOS>MOLECULE
molecule
   34    36     1     0     0
SMALL
bcc


@<TRIPOS>ATOM
      1 C01          0.0000     0.0000     0.0000 c3         1 J8D       0.123700
      2 O6           1.4290     0.0000     0.0000 os         1 J8D      -0.305900
      3 C13          2.0450     0.0000     1.2100 ca         1 J8D       0.148100
      4 C12          3.4380     0.0010     1.2810 ca         1 J8D       0.077100
      5 C11          4.0660     0.0010     2.5110 ca         1 J8D      -0.106000
      6 O5           4.1760    -0.0000     0.1400 oh         1 J8D      -0.497100
      7 C14          1.2890     0.0060     2.3730 ca         1 J8D      -0.215000
      8 C15          1.9090     0.0070     3.6030 ca         1 J8D      -0.066000
      9 C10          3.3030     0.0010     3.6830 ca         1 J8D      -0.095800
     10 C9           3.9700     0.0010     4.9990 cc         1 J8D       0.209900
     11 O4           5.3120    -0.0040     5.0430 os         1 J8D      -0.214200
     12 C6           5.9950    -0.0040     6.2080 ca         1 J8D       0.194100
     13 C1           7.3810    -0.0090     6.2170 ca         1 J8D      -0.210000
     14 C2           8.0660    -0.0090     7.4220 ca         1 J8D       0.185100
     15 O1           9.4240    -0.0140     7.4230 oh         1 J8D      -0.518100
     16 C3           7.3770    -0.0030     8.6300 ca         1 J8D      -0.258000
     17 C4           5.9940     0.0010     8.6410 ca         1 J8D       0.220100
     18 O2           5.3190     0.0080     9.8180 oh         1 J8D      -0.475100
     19 C5           5.2960     0.0020     7.4260 ca         1 J8D      -0.262600
     20 C7           3.8230     0.0070     7.3920 c          1 J8D       0.584900
     21 O3           3.1650     0.0110     8.4200 o          1 J8D      -0.525100
     22 C8           3.2010     0.0130     6.1210 cd         1 J8D      -0.339200
     23 H1          -0.3610    -0.8830     0.5120 h1         1 J8D       0.045033
     24 H2          -0.3610     0.8860     0.5090 h1         1 J8D       0.045033
     25 H3          -0.3610    -0.0020    -1.0210 h1         1 J8D       0.045033
     26 H4           5.1480    -0.0010     2.5670 ha         1 J8D       0.157000
     27 H5           4.6780    -0.7970     0.0910 ho         1 J8D       0.418000
     28 H6           0.2070     0.0110     2.3140 ha         1 J8D       0.147000
     29 H7           1.3150     0.0090     4.5090 ha         1 J8D       0.147000
     30 H8           7.9280    -0.0420     5.2830 ha         1 J8D       0.159000
     31 H9           9.7410     0.8740     7.4260 ho         1 J8D       0.431000
     32 H10          7.9240    -0.0030     9.5650 ha         1 J8D       0.153000
     33 H11          5.6320    -0.6960    10.3630 ho         1 J8D       0.428000
     34 H12          2.1300     0.1610     6.0420 ha         1 J8D       0.169000
@<TRIPOS>BOND
     1    18    17 1
     2    21    20 2
     3    17    16 ar
     4    17    19 ar
     5    16    14 ar
     6    20    19 1
     7    20    22 1
     8    19    12 ar
     9    14    15 1
    10    14    13 ar
    11    22    10 2
    12    12    13 ar
    13    12    11 1
    14    10    11 1
    15    10     9 1
    16     9     8 ar
    17     9     5 ar
    18     8     7 ar
    19     5     4 ar
    20     7     3 ar
    21     4     3 ar
    22     4     6 1
    23     3     2 1
    24     2     1 1
    25     1    23 1
    26     1    24 1
    27     1    25 1
    28     5    26 1
    29     6    27 1
    30     7    28 1
    31     8    29 1
    32    13    30 1
    33    15    31 1
    34    16    32 1
    35    18    33 1
    36    22    34 1
@<TRIPOS>SUBSTRUCTURE
     1 J8D         1 TEMP              0 ****  ****    0 ROOT
