@<TRIPOS>MOLECULE
molecule
   35    37     1     0     0
SMALL
bcc


@<TRIPOS>ATOM
      1 C1           0.0000     0.0000     0.0000 ca         1 J8G      -0.317000
      2 C2           1.3820     0.0000     0.0000 ca         1 J8G       0.243100
      3 C3           2.0720     0.0000     1.2200 ca         1 J8G      -0.290600
      4 C4           1.3620     0.0000     2.4340 ca         1 J8G       0.211100
      5 C5          -0.0240     0.0010     2.4120 ca         1 J8G      -0.213000
      6 C6          -0.6990     0.0000     1.2020 ca         1 J8G       0.218100
      7 C19          5.0670    -0.8990     5.2530 ca         1 J8G      -0.097000
      8 C18          5.6760    -0.8950     6.4930 ca         1 J8G       0.083100
      9 O23          6.6870    -1.7660     6.7570 oh         1 J8G      -0.506100
     10 C17          5.2540     0.0010     7.4740 ca         1 J8G       0.109100
     11 O24          5.8540     0.0050     8.6930 oh         1 J8G      -0.510100
     12 C16          4.2230     0.8910     7.2080 ca         1 J8G      -0.165000
     13 C15          3.6100     0.8920     5.9730 ca         1 J8G      -0.090000
     14 C14          4.0310     0.0010     4.9840 ca         1 J8G      -0.057800
     15 C11          3.3770    -0.0000     3.6620 cc         1 J8G       0.158900
     16 O12          2.0340     0.0010     3.6040 os         1 J8G      -0.196200
     17 O29         -2.0570     0.0020     1.1900 os         1 J8G      -0.318900
     18 C01         -2.6940     0.0010    -0.0890 c3         1 J8G       0.126700
     19 O30          2.0660    -0.0010    -1.1720 oh         1 J8G      -0.483100
     20 C9           3.5430    -0.0010     1.2650 c          1 J8G       0.563900
     21 O13          4.2090    -0.0000     0.2420 o          1 J8G      -0.524100
     22 C10          4.1570    -0.0020     2.5440 cd         1 J8G      -0.084100
     23 O27          5.5130    -0.0010     2.6550 oh         1 J8G      -0.481100
     24 H1          -0.5400    -0.0010    -0.9390 ha         1 J8G       0.150000
     25 H2          -0.5790     0.0010     3.3420 ha         1 J8G       0.165000
     26 H3           5.3960    -1.5920     4.4880 ha         1 J8G       0.165000
     27 H4           6.3310    -2.6270     6.8990 ho         1 J8G       0.424000
     28 H5           6.4080     0.7640     8.7680 ho         1 J8G       0.426000
     29 H6           3.8970     1.5850     7.9740 ha         1 J8G       0.146000
     30 H7           2.8060     1.5890     5.7680 ha         1 J8G       0.144000
     31 H8          -2.3990     0.8860    -0.6400 h1         1 J8G       0.047033
     32 H9          -3.7690     0.0010     0.0440 h1         1 J8G       0.047033
     33 H10         -2.3980    -0.8830    -0.6400 h1         1 J8G       0.047033
     34 H11          1.8530     0.7760    -1.6610 ho         1 J8G       0.429000
     35 H12          5.8710     0.6950     2.1290 ho         1 J8G       0.430000
@<TRIPOS>BOND
     1    19     2 1
     2     1     2 ar
     3     1     6 ar
     4     2     3 ar
     5    21    20 2
     6    18    17 1
     7     3    20 1
     8     3     4 ar
     9     6    17 1
    10     6     5 ar
    11    20    22 1
    12     4     5 ar
    13     4    16 1
    14    22    23 1
    15    22    15 2
    16    16    15 1
    17    15    14 1
    18    14    13 ar
    19    14     7 ar
    20    13    12 ar
    21     7     8 ar
    22    12    10 ar
    23     8    10 ar
    24     8     9 1
    25    10    11 1
    26     1    24 1
    27     5    25 1
    28     7    26 1
    29     9    27 1
    30    11    28 1
    31    12    29 1
    32    13    30 1
    33    18    31 1
    34    18    32 1
    35    18    33 1
    36    19    34 1
    37    23    35 1
@<TRIPOS>SUBSTRUCTURE
     1 J8G         1 TEMP              0 ****  ****    0 ROOT
