@<TRIPOS>MOLECULE
J8Z
   45    47     1     0     0
SMALL
bcc


@<TRIPOS>ATOM
      1 N1           0.0000     0.0000     0.0000 ns         1 J8Z      -0.112900
      2 C2           1.4650     0.0000     0.0000 c3         1 J8Z      -0.012300
      3 C3           1.9750     0.0000     1.4420 c3         1 J8Z       0.263400
      4 O4           1.5960    -1.2210     2.0810 os         1 J8Z      -0.488200
      5 C5          -0.6730     1.1630     0.1010 c          1 J8Z       0.606300
      6 O6          -0.0650     2.2130     0.1930 o          1 J8Z      -0.678100
      7 P7           1.9680    -1.5630     3.6110 p5         1 J8Z       0.673900
      8 O8           3.5160    -1.4380     3.8120 o          1 J8Z      -0.731833
      9 O9           1.2350    -0.5570     4.5620 o          1 J8Z      -0.731833
     10 O10          1.5130    -3.0240     3.9440 o          1 J8Z      -0.731833
     11 C11         -2.1440     1.1630     0.1010 cc         1 J8Z      -0.015600
     12 C12         -2.9040     2.2590     0.1960 cd         1 J8Z      -0.077200
     13 C13         -4.2900     2.0380     0.1760 ca         1 J8Z      -0.073800
     14 C14         -4.6170     0.6830     0.0580 ca         1 J8Z       0.013900
     15 S15         -3.1420    -0.2740    -0.0330 ss         1 J8Z      -0.200500
     16 C16         -5.3410     2.9830     0.2590 ca         1 J8Z      -0.068000
     17 C17         -6.6380     2.5780     0.2230 ca         1 J8Z      -0.121000
     18 C18         -6.9560     1.2300     0.1050 ca         1 J8Z      -0.134000
     19 C19         -5.9590     0.2890     0.0230 ca         1 J8Z      -0.051000
     20 C20          1.9750    -1.2500    -0.7210 c3         1 J8Z       0.010900
     21 C21          2.4170    -0.5950    -3.0960 ca         1 J8Z      -0.107000
     22 C22          1.5760    -1.1890    -2.1740 ca         1 J8Z      -0.054300
     23 C23          0.3710    -1.7280    -2.5820 ca         1 J8Z      -0.102000
     24 C24          0.0060    -1.6720    -3.9140 ca         1 J8Z      -0.098300
     25 C25          0.8450    -1.0780    -4.8380 ca         1 J8Z      -0.137000
     26 C26          2.0510    -0.5390    -4.4290 ca         1 J8Z      -0.112000
     27 C27         -1.3080    -2.2610    -4.3600 c3         1 J8Z       0.067200
     28 HN1         -0.5000    -0.8670    -0.0200 hn         1 J8Z       0.178500
     29 H2           1.8260     0.8840    -0.5110 h1         1 J8Z       0.025700
     30 H3           1.5430     0.8370     1.9780 h1         1 J8Z      -0.008800
     31 H3A          3.0540     0.0890     1.4440 h1         1 J8Z      -0.008800
     32 H12         -2.4780     3.2510     0.2830 ha         1 J8Z       0.136000
     33 H16         -5.1100     4.0380     0.3510 ha         1 J8Z       0.096000
     34 H17         -7.4310     3.3130     0.2870 ha         1 J8Z       0.087000
     35 H18         -7.9940     0.9210     0.0780 ha         1 J8Z       0.090000
     36 H19         -6.2120    -0.7600    -0.0690 ha         1 J8Z       0.101000
     37 H20          1.5430    -2.1320    -0.2640 hc         1 J8Z       0.051200
     38 H20A         3.0550    -1.2960    -0.6440 hc         1 J8Z       0.051200
     39 H23         -0.2870    -2.1940    -1.8580 ha         1 J8Z       0.120000
     40 H25          0.5580    -1.0350    -5.8820 ha         1 J8Z       0.088000
     41 H26          2.7090    -0.0730    -5.1520 ha         1 J8Z       0.085000
     42 H27         -1.1870    -2.7170    -5.3350 hc         1 J8Z       0.000033
     43 H27A        -1.6290    -3.0110    -3.6480 hc         1 J8Z       0.000033
     44 H27B        -2.0540    -1.4770    -4.4190 hc         1 J8Z       0.000033
     45 H21          3.3610    -0.1720    -2.7760 ha         1 J8Z       0.108000
@<TRIPOS>BOND
     1     1     2 1   
     2     1     5 1   
     3     1    28 1   
     4     2     3 1   
     5     2    20 1   
     6     2    29 1   
     7     3     4 1   
     8     3    30 1   
     9     3    31 1   
    10     4     7 1   
    11     5     6 2   
    12     5    11 1   
    13     7     8 1   
    14     7     9 1   
    15     7    10 1   
    16    11    12 2   
    17    11    15 1   
    18    12    13 1   
    19    12    32 1   
    20    13    14 ar  
    21    13    16 ar  
    22    14    15 1   
    23    14    19 ar  
    24    16    17 ar  
    25    16    33 1   
    26    17    18 ar  
    27    17    34 1   
    28    18    19 ar  
    29    18    35 1   
    30    19    36 1   
    31    20    22 1   
    32    20    37 1   
    33    20    38 1   
    34    21    22 ar  
    35    21    26 ar  
    36    21    45 1   
    37    22    23 ar  
    38    23    24 ar  
    39    23    39 1   
    40    24    25 ar  
    41    24    27 1   
    42    25    26 ar  
    43    25    40 1   
    44    26    41 1   
    45    27    42 1   
    46    27    43 1   
    47    27    44 1   
@<TRIPOS>SUBSTRUCTURE
     1 J8Z         1 TEMP              0 ****  ****    0 ROOT
