@<TRIPOS>MOLECULE
molecule
   34    35     1     0     0
SMALL
bcc


@<TRIPOS>ATOM
      1 N1           0.0000     0.0000     0.0000 ns         1 J90      -0.450400
      2 C2           1.3480     0.0000     0.0000 cc         1 J90       0.587800
      3 N3           2.0340     0.0000     1.1100 nd         1 J90      -0.731300
      4 C4           1.4250     0.0010     2.3060 cd         1 J90       0.512600
      5 C5           0.0410     0.0010     2.3670 cc         1 J90      -0.438300
      6 C6          -0.6800     0.0000     1.1650 c          1 J90       0.711700
      7 N7           2.1720     0.0000     3.4660 nu         1 J90      -0.774000
      8 C8           4.2020    -0.0930     4.7920 ca         1 J90      -0.014300
      9 C9           4.3700    -1.2730     5.4920 ca         1 J90      -0.112500
     10 C10          4.9000    -1.2500     6.7680 ca         1 J90      -0.027000
     11 C11          5.2630    -0.0480     7.3450 ca         1 J90      -0.337500
     12 C12          5.0960     1.1330     6.6440 ca         1 J90      -0.027000
     13 C13          4.5650     1.1100     5.3680 ca         1 J90      -0.112500
     14 S14          5.9370    -0.0180     8.9730 sy         1 J90       1.228200
     15 O15          5.6910     1.2850     9.4840 o          1 J90      -0.513800
     16 O16          5.4870    -1.2020     9.6140 o          1 J90      -0.513800
     17 N17          7.5790    -0.1610     8.8250 nz         1 J90      -0.807500
     18 N18         -0.6590     0.0010     3.6710 no         1 J90       0.316100
     19 O19         -0.0220     0.1060     4.7050 o          1 J90      -0.209000
     20 O20         -1.8720    -0.1030     3.7120 o          1 J90      -0.209000
     21 O21         -1.9000     0.0010     1.1730 o          1 J90      -0.566500
     22 C22          3.6310    -0.1190     3.3980 c3         1 J90       0.262100
     23 HN1         -0.4980    -0.0000    -0.8680 hn         1 J90       0.359500
     24 H2           1.8760    -0.0000    -0.9460 h5         1 J90       0.075800
     25 HN7          1.7190     0.1020     4.3520 hn         1 J90       0.506800
     26 H9           4.0850    -2.2160     5.0400 ha         1 J90       0.170500
     27 H10          5.0300    -2.1750     7.3170 ha         1 J90       0.159000
     28 H12          5.3800     2.0750     7.0950 ha         1 J90       0.159000
     29 H13          4.4340     2.0340     4.8200 ha         1 J90       0.170500
     30 HN17         7.7990    -1.0240     8.3690 hn         1 J90       0.492133
     31 HN1A         7.9980    -0.1480     9.7340 hn         1 J90       0.492133
     32 H22          4.0350     0.7090     2.8270 h1         1 J90       0.073200
     33 H22A         3.8950    -1.0520     2.9160 h1         1 J90       0.073200
     34 H173         7.9320     0.5960     8.2740 hn         1 J90       0.492133
@<TRIPOS>BOND
     1     1     2 1
     2     1     6 1
     3     2     3 2
     4     3     4 1
     5     4     5 2
     6     4     7 1
     7     5     6 1
     8     5    18 1
     9     6    21 2
    10     7    22 1
    11     8     9 ar
    12     8    13 ar
    13     8    22 1
    14     9    10 ar
    15    10    11 ar
    16    11    12 ar
    17    11    14 1
    18    12    13 ar
    19    14    15 2
    20    14    16 2
    21    14    17 1
    22    18    19 1
    23    18    20 1
    24     1    23 1
    25     2    24 1
    26     7    25 1
    27     9    26 1
    28    10    27 1
    29    12    28 1
    30    13    29 1
    31    17    30 1
    32    17    31 1
    33    22    32 1
    34    22    33 1
    35    34    17 1
@<TRIPOS>SUBSTRUCTURE
     1 J90         1 TEMP              0 ****  ****    0 ROOT
