@<TRIPOS>MOLECULE
J94
   48    53     1     0     0
SMALL
bcc


@<TRIPOS>ATOM
      1 C01          0.0000     0.0000     0.0000 c3         1 J94      -0.003400
      2 N02          1.4680     0.0000     0.0000 n4         1 J94       0.060200
      3 C03          1.9600    -1.1950    -0.6990 c3         1 J94      -0.003400
      4 C04          1.9610     0.0000     1.3870 c3         1 J94      -0.001200
      5 C05          3.4590    -0.3090     1.3710 c3         1 J94       0.029900
      6 C06          4.1580     0.6040     0.3960 ca         1 J94      -0.112300
      7 C07          3.4570     1.3050    -0.5620 ca         1 J94      -0.132300
      8 C08          4.1340     2.1330    -1.4440 ca         1 J94      -0.136000
      9 C09          5.5100     2.2630    -1.3680 ca         1 J94       0.102100
     10 O10          6.3950     2.9980    -2.1040 os         1 J94      -0.296900
     11 C11          7.6860     2.4210    -1.8390 c3         1 J94       0.433200
     12 O12          7.5440     1.8490    -0.5250 os         1 J94      -0.295900
     13 C13          6.2170     1.5560    -0.3980 ca         1 J94       0.102100
     14 C14          5.5370     0.7310     0.4790 ca         1 J94      -0.066000
     15 C15          1.9590     1.2020    -0.6800 c3         1 J94       0.037800
     16 C16          1.5730     1.1380    -2.1590 c3         1 J94       0.238400
     17 O17          2.4850     0.2610    -2.8750 os         1 J94      -0.388900
     18 C18          3.1150     0.9670    -3.8290 c          1 J94       0.816200
     19 O19          3.9400     0.5150    -4.5970 o          1 J94      -0.554500
     20 C20          2.6620     2.3670    -3.8090 ca         1 J94      -0.200600
     21 C21          3.0030     3.4830    -4.5810 ca         1 J94       0.167100
     22 O22          3.8770     3.6350    -5.6150 os         1 J94      -0.281900
     23 C23          3.5030     4.8670    -6.2580 c3         1 J94       0.430200
     24 O24          2.8920     5.6320    -5.2030 os         1 J94      -0.293900
     25 C25          2.3960     4.7100    -4.3250 ca         1 J94       0.080100
     26 C26          1.4570     4.8220    -3.3140 ca         1 J94      -0.050000
     27 C27          1.1180     3.7160    -2.5480 ca         1 J94      -0.065000
     28 C28          1.7110     2.5010    -2.7900 ca         1 J94      -0.159300
     29 H1          -0.3610    -0.6470     0.7910 hx         1 J94       0.078533
     30 H2          -0.3610    -0.3610    -0.9550 hx         1 J94       0.078533
     31 H3          -0.3610     1.0080     0.1650 hx         1 J94       0.078533
     32 H4           2.9970    -1.0490    -0.9780 hx         1 J94       0.078533
     33 H5           1.3670    -1.3620    -1.5900 hx         1 J94       0.078533
     34 H6           1.8800    -2.0550    -0.0450 hx         1 J94       0.078533
     35 H7           1.4390    -0.7590     1.9570 hx         1 J94       0.076200
     36 H8           3.8670    -0.1560     2.3630 hc         1 J94       0.056200
     37 H9           3.5800     2.7020    -2.1810 ha         1 J94       0.169000
     38 H10          7.9130     1.6500    -2.5650 h2         1 J94       0.029700
     39 H11          8.4510     3.1880    -1.8370 h2         1 J94       0.029700
     40 H12          6.0840     0.1820     1.2360 ha         1 J94       0.131000
     41 H13          1.5070     2.0760    -0.2270 hx         1 J94       0.092700
     42 H14          0.5560     0.7820    -2.2670 h1         1 J94       0.050700
     43 H15          4.3800     5.3780    -6.6380 h2         1 J94       0.031200
     44 H16          2.7900     4.6790    -7.0520 h2         1 J94       0.031200
     45 H17          0.9850     5.7770    -3.1200 ha         1 J94       0.132000
     46 H18          0.3740     3.8080    -1.7670 ha         1 J94       0.110000
     47 H19          1.7960     0.9740     1.8300 hx         1 J94       0.076200
     48 H20          3.6100    -1.3390     1.0690 hc         1 J94       0.056200
@<TRIPOS>BOND
     1     1     2 1   
     2     1    29 1   
     3     1    30 1   
     4     1    31 1   
     5     2     3 1   
     6     2     4 1   
     7     2    15 1   
     8     3    32 1   
     9     3    33 1   
    10     3    34 1   
    11     4     5 1   
    12     4    35 1   
    13     4    47 1   
    14     5     6 1   
    15     5    36 1   
    16     5    48 1   
    17     6     7 ar  
    18     6    14 ar  
    19     7     8 ar  
    20     7    15 1   
    21     8     9 ar  
    22     8    37 1   
    23     9    10 1   
    24     9    13 ar  
    25    10    11 1   
    26    11    12 1   
    27    11    38 1   
    28    11    39 1   
    29    12    13 1   
    30    13    14 ar  
    31    14    40 1   
    32    15    16 1   
    33    15    41 1   
    34    16    17 1   
    35    16    28 1   
    36    16    42 1   
    37    17    18 1   
    38    18    19 2   
    39    18    20 1   
    40    20    21 ar  
    41    20    28 ar  
    42    21    22 1   
    43    21    25 ar  
    44    22    23 1   
    45    23    24 1   
    46    23    43 1   
    47    23    44 1   
    48    24    25 1   
    49    25    26 ar  
    50    26    27 ar  
    51    26    45 1   
    52    27    28 ar  
    53    27    46 1   
@<TRIPOS>SUBSTRUCTURE
     1 J94         1 TEMP              0 ****  ****    0 ROOT
