@<TRIPOS>MOLECULE
molecule
   48    53     1     0     0
SMALL
bcc


@<TRIPOS>ATOM
      1 C01          0.0000     0.0000     0.0000 c3         1 J94       0.090600
      2 N02          1.4680     0.0000     0.0000 n4         1 J94      -0.570800
      3 C03          1.9600    -1.1950    -0.6990 c3         1 J94       0.090600
      4 C04          1.9610     0.0000     1.3870 c3         1 J94       0.114800
      5 C05          3.4590    -0.3090     1.3710 c3         1 J94      -0.049100
      6 C06          4.1580     0.6040     0.3960 ca         1 J94      -0.092300
      7 C07          3.4570     1.3050    -0.5620 ca         1 J94      -0.130300
      8 C08          4.1340     2.1330    -1.4440 ca         1 J94      -0.124000
      9 C09          5.5100     2.2630    -1.3680 ca         1 J94       0.084100
     10 O10          6.3950     2.9980    -2.1040 os         1 J94      -0.304900
     11 C11          7.6860     2.4210    -1.8390 c3         1 J94       0.329200
     12 O12          7.5440     1.8490    -0.5250 os         1 J94      -0.304900
     13 C13          6.2170     1.5560    -0.3980 ca         1 J94       0.093100
     14 C14          5.5370     0.7310     0.4790 ca         1 J94      -0.101000
     15 C15          1.9590     1.2020    -0.6800 c3         1 J94       0.181800
     16 C16          1.5730     1.1380    -2.1590 c3         1 J94       0.183400
     17 O17          2.4850     0.2610    -2.8750 os         1 J94      -0.392900
     18 C18          3.1150     0.9670    -3.8290 c          1 J94       0.746200
     19 O19          3.9400     0.5150    -4.5970 o          1 J94      -0.508500
     20 C20          2.6620     2.3670    -3.8090 ca         1 J94      -0.186600
     21 C21          3.0030     3.4830    -4.5810 ca         1 J94       0.147100
     22 O22          3.8770     3.6350    -5.6150 os         1 J94      -0.288900
     23 C23          3.5030     4.8670    -6.2580 c3         1 J94       0.325200
     24 O24          2.8920     5.6320    -5.2030 os         1 J94      -0.302900
     25 C25          2.3960     4.7100    -4.3250 ca         1 J94       0.075100
     26 C26          1.4570     4.8220    -3.3140 ca         1 J94      -0.081000
     27 C27          1.1180     3.7160    -2.5480 ca         1 J94      -0.097000
     28 C28          1.7110     2.5010    -2.7900 ca         1 J94      -0.145300
     29 H1          -0.3610    -0.6470     0.7910 hx         1 J94       0.100867
     30 H2          -0.3610    -0.3610    -0.9550 hx         1 J94       0.100867
     31 H3          -0.3610     1.0080     0.1650 hx         1 J94       0.100867
     32 H4           2.9970    -1.0490    -0.9780 hx         1 J94       0.100867
     33 H5           1.3670    -1.3620    -1.5900 hx         1 J94       0.100867
     34 H6           1.8800    -2.0550    -0.0450 hx         1 J94       0.100867
     35 H7           1.4390    -0.7590     1.9570 hx         1 J94       0.101200
     36 H8           3.8670    -0.1560     2.3630 hc         1 J94       0.090700
     37 H9           3.5800     2.7020    -2.1810 ha         1 J94       0.178000
     38 H10          7.9130     1.6500    -2.5650 h2         1 J94       0.090700
     39 H11          8.4510     3.1880    -1.8370 h2         1 J94       0.090700
     40 H12          6.0840     0.1820     1.2360 ha         1 J94       0.164000
     41 H13          1.5070     2.0760    -0.2270 hx         1 J94       0.115700
     42 H14          0.5560     0.7820    -2.2670 h1         1 J94       0.090700
     43 H15          4.3800     5.3780    -6.6380 h2         1 J94       0.092700
     44 H16          2.7900     4.6790    -7.0520 h2         1 J94       0.092700
     45 H17          0.9850     5.7770    -3.1200 ha         1 J94       0.171000
     46 H18          0.3740     3.8080    -1.7670 ha         1 J94       0.143000
     47 H19          1.7960     0.9740     1.8300 hx         1 J94       0.101200
     48 H20          3.6100    -1.3390     1.0690 hc         1 J94       0.090700
@<TRIPOS>BOND
     1    12    11 1
     2    12    13 1
     3    11    10 1
     4    14    13 ar
     5    14     6 ar
     6    13     9 ar
     7     5     6 1
     8     5     4 1
     9    10     9 1
    10     6     7 ar
    11     9     8 ar
    12     4     2 1
    13     7     8 ar
    14     7    15 1
    15    19    18 2
    16     1     2 1
    17     2    15 1
    18     2     3 1
    19    17    18 1
    20    17    16 1
    21    18    20 1
    22    15    16 1
    23    16    28 1
    24    20    21 ar
    25    20    28 ar
    26    22    21 1
    27    22    23 1
    28    21    25 ar
    29    28    27 ar
    30    23    24 1
    31    25    24 1
    32    25    26 ar
    33    27    26 ar
    34     1    29 1
    35     1    30 1
    36     1    31 1
    37     3    32 1
    38     3    33 1
    39     3    34 1
    40     4    35 1
    41     5    36 1
    42     8    37 1
    43    11    38 1
    44    11    39 1
    45    14    40 1
    46    15    41 1
    47    16    42 1
    48    23    43 1
    49    23    44 1
    50    26    45 1
    51    27    46 1
    52     4    47 1
    53     5    48 1
@<TRIPOS>SUBSTRUCTURE
     1 J94         1 TEMP              0 ****  ****    0 ROOT
