@<TRIPOS>MOLECULE
J99
   56    58     1     0     0
SMALL
bcc


@<TRIPOS>ATOM
      1 C           0.8010   -1.1590   -0.0250 c3        1 J99     -0.230000
      2 F           1.9020   -3.2430    3.3260 f         1 J99     -0.092000
      3 N           0.8880    3.7800   -3.2670 n2        1 J99     -0.164000
      4 O           1.4400    0.8520   -1.0930 os        1 J99     -0.314000
      5 C1          1.1060    0.3120    0.2080 c3        1 J99      0.129000
      6 N1          2.3180    1.8910   -3.4140 n3        1 J99     -0.213000
      7 C2          0.8440    2.1070   -1.3820 c3        1 J99      0.090000
      8 N2          0.9590    7.6840    0.6570 n2        1 J99     -0.027000
      9 C3          1.1660    3.1770   -0.3960 c2        1 J99     -0.272000
     10 N3          1.3180    7.1040    1.8090 na        1 J99     -0.106000
     11 C4          0.3160    4.1920   -0.1810 c2        1 J99     -0.003000
     12 N4          1.2340    3.4520    2.8390 n         1 J99     -0.332000
     13 C5          0.9530    4.9510   -2.8390 c1        1 J99      0.051000
     14 C6          1.4390    2.6150   -2.7320 c2        1 J99      0.267000
     15 C7          0.6460    5.4050    0.5020 c2        1 J99     -0.189000
     16 C8          0.5350    6.6950   -0.1730 c2        1 J99     -0.127000
     17 C9          1.8120    7.8300    2.9580 c3        1 J99     -0.073000
     18 C10         1.1590    5.7040    1.7780 c2        1 J99     -0.027000
     19 C11         1.5170    4.8590    2.9630 c3        1 J99      0.029000
     20 C12        -0.0910    3.0180    3.1750 c3        1 J99     -0.079000
     21 C13         2.2590    2.5780    2.4910 c2        1 J99      0.341000
     22 C14         1.9940    1.1030    2.4440 c2        1 J99     -0.107000
     23 C15         1.6040    0.4440    3.5510 c2        1 J99     -0.026000
     24 C16         1.3930   -0.9720    3.7190 c2        1 J99     -0.238000
     25 C17         2.1260   -1.9350    3.1170 c2        1 J99      0.057000
     26 C18         3.5060    0.1330    0.7880 c1        1 J99      0.305000
     27 C19         2.2760    0.4980    1.1400 c2        1 J99     -0.428000
     28 C20         0.0260    6.8710   -1.5620 c3        1 J99      0.016000
     29 C21        -0.1830    8.3260   -1.9410 c3        1 J99     -0.213000
     30 C22         0.9640    6.2300   -2.5460 c2        1 J99     -0.066000
     31 H           0.2070    0.8440    0.6250 h1        1 J99      0.112000
     32 HA         -0.1490   -1.2680   -0.6000 hc        1 J99      0.103000
     33 HB          1.6260   -1.6450   -0.6000 hc        1 J99      0.103000
     34 H1          0.6970   -1.6700    0.9640 hc        1 J99      0.103000
     35 HN1         2.5630    0.9750   -3.0780 hn        1 J99      0.286500
     36 HN1A        2.7350    2.2010   -4.2700 hn        1 J99      0.286500
     37 H3         -0.2660    1.9600   -1.5310 h1        1 J99      0.140000
     38 H5         -0.6950    4.1880   -0.6400 ha        1 J99      0.129000
     39 H9          1.0900    7.7030    3.8090 h1        1 J99      0.113000
     40 H9A         1.9200    8.9220    2.7210 h1        1 J99      0.113000
     41 H9B         2.8130    7.4100    3.2480 h1        1 J99      0.113000
     42 H11         2.6280    4.9910    3.1550 h1        1 J99      0.127000
     43 H11A        0.9550    5.2570    3.8620 h1        1 J99      0.127000
     44 H12        -0.2040    2.9320    4.2910 h1        1 J99      0.088000
     45 H12A       -0.8410    3.7630    2.7950 h1        1 J99      0.088000
     46 H12B       -0.3100    2.0190    2.7120 h1        1 J99      0.088000
     47 H15         1.3950    1.0340    4.4680 ha        1 J99      0.149000
     48 H16         0.5940   -1.2490    4.4310 ha        1 J99      0.162000
     49 H18         2.9660   -1.7330    2.4260 h4        1 J99      0.154000
     50 H20        -0.9740    6.3430   -1.6150 hc        1 J99      0.117000
     51 H21        -0.9060    8.7990   -1.2320 hc        1 J99      0.100667
     52 H21A        0.7760    8.8960   -1.8990 hc        1 J99      0.100667
     53 H22        -0.5990    8.3950   -2.9750 hc        1 J99      0.100667
     54 H22A        1.6860    6.9010   -3.0520 ha        1 J99      0.203000
     55 O1          3.3880    3.0240    2.2060 o         1 J99     -0.351000
     56 H41         2.1600    3.1110    0.0800 ha        1 J99      0.185000
@<TRIPOS>BOND
     1    1    5 1   
     2    1   32 1   
     3    1   33 1   
     4    1   34 1   
     5    2   25 1   
     6    3   13 1   
     7    3   14 1   
     8    4    5 1   
     9    4    7 1   
    10    5   27 1   
    11    5   31 1   
    12    6   14 1   
    13    6   35 1   
    14    6   36 1   
    15    7    9 1   
    16    7   14 1   
    17    7   37 1   
    18    8   10 1   
    19    8   16 1   
    20    9   11 1   
    21    9   56 1   
    22   10   17 1   
    23   10   18 1   
    24   11   15 1   
    25   11   38 1   
    26   12   19 1   
    27   12   20 1   
    28   12   21 1   
    29   13   30 1   
    30   15   16 1   
    31   15   18 1   
    32   16   28 1   
    33   17   39 1   
    34   17   40 1   
    35   17   41 1   
    36   18   19 1   
    37   19   42 1   
    38   19   43 1   
    39   20   44 1   
    40   20   45 1   
    41   20   46 1   
    42   21   22 1   
    43   21   55 1   
    44   22   23 1   
    45   22   27 1   
    46   23   24 1   
    47   23   47 1   
    48   24   25 1   
    49   24   48 1   
    50   25   49 1   
    51   26   27 1   
    52   28   29 1   
    53   28   30 1   
    54   28   50 1   
    55   29   51 1   
    56   29   52 1   
    57   29   53 1   
    58   30   54 1   
@<TRIPOS>SUBSTRUCTURE
     1 J99         1 TEMP              0 ****  ****    0 ROOT
