@<TRIPOS>MOLECULE
molecule
   39    41     1     0     0
SMALL
bcc


@<TRIPOS>ATOM
      1 C10          0.0000     0.0000     0.0000 ca         1 J9D       0.738200
      2 C13          2.0550     0.0000     1.2220 ca         1 J9D       0.601800
      3 C15          4.1850    -0.0000    -0.2900 cc         1 J9D       0.435400
      4 C17          5.7290    -0.0000     1.4230 cd         1 J9D       0.444600
      5 C21          4.5920    -0.0000     2.0630 cc         1 J9D      -0.355600
      6 C24         -4.7160    -1.6310     2.7020 ca         1 J9D      -0.070500
      7 C03         -5.3730    -0.4360     3.5340 ca         1 J9D      -0.013000
      8 C04         -4.7880     0.5060     4.1130 ca         1 J9D      -0.070500
      9 C05         -3.3600     0.6440     4.1040 ca         1 J9D      -0.137000
     10 C06         -2.6130    -0.4790     3.3130 ca         1 J9D       0.218600
     11 C08          0.0180     0.0000     2.3080 ca         1 J9D       0.995900
     12 C12          1.3930     0.0000     0.0000 ca         1 J9D      -0.487600
     13 C18          6.8970    -0.2300     2.2600 c3         1 J9D      -0.158700
     14 C19          7.6680    -1.5600     1.6800 c3         1 J9D       0.148400
     15 C23         -3.2330    -1.5530     2.6500 ca         1 J9D      -0.137000
     16 N01         -7.8090    -0.4940     3.2700 n1         1 J9D      -0.352800
     17 N07         -0.6780     0.0190     3.5050 nu         1 J9D      -0.857300
     18 N09         -0.6470    -0.0000     1.1620 nb         1 J9D      -0.819000
     19 N11         -0.9270    -0.3980    -1.3840 nv         1 J9D      -1.074500
     20 N14          3.6070    -0.0000     0.8260 na         1 J9D      -0.200700
     21 N16          5.6820    -0.0000     0.2030 nd         1 J9D      -0.746000
     22 N22          1.3410    -0.0000     2.3440 nb         1 J9D      -0.815000
     23 O20          8.9510    -1.5110     2.2850 oh         1 J9D      -0.645800
     24 H1           3.8980    -0.5080    -1.2020 h5         1 J9D       0.080100
     25 H2           4.3010     0.2990     3.0630 h4         1 J9D       0.193000
     26 H3          -5.0870    -2.3730     2.0050 ha         1 J9D       0.173500
     27 H4          -5.0180     0.8590     5.1110 ha         1 J9D       0.173500
     28 H5          -2.7180     1.2700     4.7100 ha         1 J9D       0.173000
     29 H6           2.1750     0.0120    -0.7500 ha         1 J9D       0.157000
     30 H7           7.6190     0.3930     1.7450 hc         1 J9D       0.080200
     31 H8           7.0870    -0.0810     3.3160 hc         1 J9D       0.080200
     32 H9           7.2230    -2.4520     2.1030 h1         1 J9D       0.038200
     33 H10          7.8460    -1.5520     0.6110 h1         1 J9D       0.038200
     34 H11         -2.6210    -2.1960     2.0280 ha         1 J9D       0.173000
     35 H12         -0.3090     0.0720     4.4340 hn         1 J9D       0.462800
     36 H13         -1.9120    -0.3080    -1.5340 hn         1 J9D       0.448800
     37 H14         -0.1610    -0.5900    -1.9990 hn         1 J9D       0.448800
     38 H15          9.3620    -2.3600     2.3220 ho         1 J9D       0.404000
     39 C02         -6.6690    -0.4650     3.3420 cg         1 J9D       0.232800
@<TRIPOS>BOND
     1    19     1 1
     2     1    18 ar
     3     1    12 ar
     4    18    11 ar
     5    23    14 1
     6    12     2 ar
     7    11    17 1
     8    11    22 ar
     9    17    10 1
    10     9    10 ar
    11     9     8 ar
    12     2    22 ar
    13     2    20 1
    14    10    15 ar
    15     5    20 1
    16     5     4 2
    17     8     7 ar
    18    20     3 1
    19    14    13 1
    20     4    13 1
    21     4    21 1
    22    15     6 ar
    23     3    21 2
    24     7     6 ar
    25     7    39 1
    26    39    16 3
    27     3    24 1
    28     5    25 1
    29     6    26 1
    30     8    27 1
    31     9    28 1
    32    12    29 1
    33    13    30 1
    34    13    31 1
    35    14    32 1
    36    14    33 1
    37    15    34 1
    38    17    35 1
    39    19    36 1
    40    19    37 1
    41    23    38 1
@<TRIPOS>SUBSTRUCTURE
     1 J9D         1 TEMP              0 ****  ****    0 ROOT
