@<TRIPOS>MOLECULE
molecule
   49    52     1     0     0
SMALL
bcc


@<TRIPOS>ATOM
      1 C02          0.0000     0.0000     0.0000 c          1 J9E       0.694300
      2 C04         -2.1390    -0.0120    -1.1660 c3         1 J9E       0.118700
      3 C05         -2.6510     0.5930    -2.4750 c3         1 J9E      -0.096900
      4 C06         -4.1810     0.5860    -2.4750 c3         1 J9E      -0.067900
      5 C07         -4.6860    -0.8520    -2.3460 c3         1 J9E      -0.064000
      6 C08         -4.1720    -1.6810    -3.5250 c3         1 J9E      -0.070400
      7 C09         -4.6760    -3.1200    -3.3960 c3         1 J9E      -0.081900
      8 C10         -6.2070    -3.1260    -3.3950 c3         1 J9E      -0.079400
      9 C11         -6.7200    -2.2980    -2.2150 c3         1 J9E      -0.081900
     10 C12         -6.2160    -0.8590    -2.3450 c3         1 J9E      -0.070400
     11 C13         -4.1730    -1.4570    -1.0360 c3         1 J9E      -0.067900
     12 C14         -2.6420    -1.4500    -1.0370 c3         1 J9E      -0.096900
     13 C15          1.4690     0.0000     0.0000 cc         1 J9E      -0.140300
     14 C16          2.2580     0.0000     1.1070 cd         1 J9E      -0.083200
     15 C17          3.6060    -0.0010     0.6770 ca         1 J9E      -0.172800
     16 C18          4.8340    -0.0000     1.3570 ca         1 J9E       0.220900
     17 C20          6.0030    -0.0010     0.6480 ca         1 J9E      -0.244000
     18 C21          5.9870    -0.0010    -0.7420 ca         1 J9E       0.188900
     19 C23          4.7910     0.0000    -1.4310 ca         1 J9E      -0.211000
     20 C24          3.5890    -0.0010    -0.7320 ca         1 J9E       0.014800
     21 F19          4.8600     0.0010     2.7070 f          1 J9E      -0.126900
     22 F22          7.1530     0.0000    -1.4240 f          1 J9E      -0.131900
     23 N03         -0.6740    -0.0060    -1.1670 ns         1 J9E      -0.582900
     24 N25          2.2710    -0.0060    -1.1260 na         1 J9E      -0.170400
     25 O01         -0.6080     0.0000     1.0540 o          1 J9E      -0.589100
     26 H1          -2.5060     0.5730    -0.3320 h1         1 J9E       0.083700
     27 H2          -2.2960     1.6120    -2.5630 hc         1 J9E       0.048700
     28 H3          -2.2890     0.0050    -3.3090 hc         1 J9E       0.048700
     29 H4          -4.5430     1.1710    -1.6380 hc         1 J9E       0.049700
     30 H5          -4.5430     1.0120    -3.4030 hc         1 J9E       0.049700
     31 H6          -3.0890    -1.6780    -3.5220 hc         1 J9E       0.042200
     32 H7          -4.5370    -1.2530    -4.4510 hc         1 J9E       0.042200
     33 H8          -4.3150    -3.7040    -4.2330 hc         1 J9E       0.042700
     34 H9          -4.3150    -3.5460    -2.4680 hc         1 J9E       0.042700
     35 H10         -6.5630    -4.1450    -3.3010 hc         1 J9E       0.040700
     36 H11         -6.5690    -2.6950    -4.3210 hc         1 J9E       0.040700
     37 H12         -7.8030    -2.3020    -2.2170 hc         1 J9E       0.042700
     38 H13         -6.3540    -2.7260    -1.2900 hc         1 J9E       0.042700
     39 H14         -6.5780    -0.2750    -1.5070 hc         1 J9E       0.042200
     40 H15         -6.5780    -0.4330    -3.2730 hc         1 J9E       0.042200
     41 H16         -4.5340    -0.8680    -0.2020 hc         1 J9E       0.049700
     42 H17         -4.5280    -2.4760    -0.9470 hc         1 J9E       0.049700
     43 H18         -2.2800    -1.8760    -0.1090 hc         1 J9E       0.048700
     44 H19         -2.2810    -2.0350    -1.8740 hc         1 J9E       0.048700
     45 H20          1.9170    -0.0780     2.1320 ha         1 J9E       0.181000
     46 H21          6.9500    -0.0010     1.1750 ha         1 J9E       0.162000
     47 H22          4.7890     0.0000    -2.5140 ha         1 J9E       0.146000
     48 H23         -0.1740     0.0200    -2.0330 hn         1 J9E       0.303500
     49 H24          1.9470    -0.0130    -2.0730 hn         1 J9E       0.300700
@<TRIPOS>BOND
     1    22    18 1
     2    17    18 ar
     3    17    16 ar
     4    18    19 ar
     5    21    16 1
     6    16    15 ar
     7    19    20 ar
     8    20    15 ar
     9    20    24 1
    10    15    14 1
    11    24    13 1
    12    14    13 2
    13    13     1 1
    14     1    25 2
    15     1    23 1
    16    23     2 1
    17     2     3 1
    18     2    12 1
    19     3     4 1
    20    12    11 1
    21     4     5 1
    22    11     5 1
    23     5     6 1
    24     5    10 1
    25     6     7 1
    26    10     9 1
    27     7     8 1
    28     9     8 1
    29     2    26 1
    30     3    27 1
    31     3    28 1
    32     4    29 1
    33     4    30 1
    34     6    31 1
    35     6    32 1
    36     7    33 1
    37     7    34 1
    38     8    35 1
    39     8    36 1
    40     9    37 1
    41     9    38 1
    42    10    39 1
    43    10    40 1
    44    11    41 1
    45    11    42 1
    46    12    43 1
    47    12    44 1
    48    14    45 1
    49    17    46 1
    50    19    47 1
    51    23    48 1
    52    24    49 1
@<TRIPOS>SUBSTRUCTURE
     1 J9E         1 TEMP              0 ****  ****    0 ROOT
