@<TRIPOS>MOLECULE
J9E
   49    52     1     0     0
SMALL
bcc


@<TRIPOS>ATOM
      1 C02          0.0000     0.0000     0.0000 c          1 J9E       0.625300
      2 C04         -2.1390    -0.0120    -1.1660 c3         1 J9E       0.022700
      3 C05         -2.6510     0.5930    -2.4750 c3         1 J9E      -0.048400
      4 C06         -4.1810     0.5860    -2.4750 c3         1 J9E      -0.018900
      5 C07         -4.6860    -0.8520    -2.3460 c3         1 J9E      -0.064000
      6 C08         -4.1720    -1.6810    -3.5250 c3         1 J9E      -0.024400
      7 C09         -4.6760    -3.1200    -3.3960 c3         1 J9E      -0.031900
      8 C10         -6.2070    -3.1260    -3.3950 c3         1 J9E      -0.023400
      9 C11         -6.7200    -2.2980    -2.2150 c3         1 J9E      -0.031900
     10 C12         -6.2160    -0.8590    -2.3450 c3         1 J9E      -0.024400
     11 C13         -4.1730    -1.4570    -1.0360 c3         1 J9E      -0.018900
     12 C14         -2.6420    -1.4500    -1.0370 c3         1 J9E      -0.048400
     13 C15          1.4690     0.0000     0.0000 cc         1 J9E      -0.342300
     14 C16          2.2580     0.0000     1.1070 cd         1 J9E      -0.037200
     15 C17          3.6060    -0.0010     0.6770 ca         1 J9E      -0.168800
     16 C18          4.8340    -0.0000     1.3570 ca         1 J9E       0.203900
     17 C20          6.0030    -0.0010     0.6480 ca         1 J9E      -0.206000
     18 C21          5.9870    -0.0010    -0.7420 ca         1 J9E       0.156900
     19 C23          4.7910     0.0000    -1.4310 ca         1 J9E      -0.160000
     20 C24          3.5890    -0.0010    -0.7320 ca         1 J9E      -0.177200
     21 F19          4.8600     0.0010     2.7070 f          1 J9E      -0.121900
     22 F22          7.1530     0.0000    -1.4240 f          1 J9E      -0.124900
     23 N03         -0.6740    -0.0060    -1.1670 ns         1 J9E      -0.197900
     24 N25          2.2710    -0.0060    -1.1260 na         1 J9E       0.373600
     25 O01         -0.6080     0.0000     1.0540 o          1 J9E      -0.629100
     26 H1          -2.5060     0.5730    -0.3320 h1         1 J9E       0.062700
     27 H2          -2.2960     1.6120    -2.5630 hc         1 J9E       0.024200
     28 H3          -2.2890     0.0050    -3.3090 hc         1 J9E       0.024200
     29 H4          -4.5430     1.1710    -1.6380 hc         1 J9E       0.025200
     30 H5          -4.5430     1.0120    -3.4030 hc         1 J9E       0.025200
     31 H6          -3.0890    -1.6780    -3.5220 hc         1 J9E       0.019450
     32 H7          -4.5370    -1.2530    -4.4510 hc         1 J9E       0.019450
     33 H8          -4.3150    -3.7040    -4.2330 hc         1 J9E       0.017450
     34 H9          -4.3150    -3.5460    -2.4680 hc         1 J9E       0.017450
     35 H10         -6.5630    -4.1450    -3.3010 hc         1 J9E       0.013200
     36 H11         -6.5690    -2.6950    -4.3210 hc         1 J9E       0.013200
     37 H12         -7.8030    -2.3020    -2.2170 hc         1 J9E       0.017450
     38 H13         -6.3540    -2.7260    -1.2900 hc         1 J9E       0.017450
     39 H14         -6.5780    -0.2750    -1.5070 hc         1 J9E       0.019450
     40 H15         -6.5780    -0.4330    -3.2730 hc         1 J9E       0.019450
     41 H16         -4.5340    -0.8680    -0.2020 hc         1 J9E       0.025200
     42 H17         -4.5280    -2.4760    -0.9470 hc         1 J9E       0.025200
     43 H18         -2.2800    -1.8760    -0.1090 hc         1 J9E       0.024200
     44 H19         -2.2810    -2.0350    -1.8740 hc         1 J9E       0.024200
     45 H20          1.9170    -0.0780     2.1320 ha         1 J9E       0.150000
     46 H21          6.9500    -0.0010     1.1750 ha         1 J9E       0.137000
     47 H22          4.7890     0.0000    -2.5140 ha         1 J9E       0.120000
     48 H23         -0.1740     0.0200    -2.0330 hn         1 J9E       0.161500
     49 H24          1.9470    -0.0130    -2.0730 hn         1 J9E       0.116700
@<TRIPOS>BOND
     1     1    13 1   
     2     1    23 1   
     3     1    25 2   
     4     2     3 1   
     5     2    12 1   
     6     2    23 1   
     7     2    26 1   
     8     3     4 1   
     9     3    27 1   
    10     3    28 1   
    11     4     5 1   
    12     4    29 1   
    13     4    30 1   
    14     5     6 1   
    15     5    10 1   
    16     5    11 1   
    17     6     7 1   
    18     6    31 1   
    19     6    32 1   
    20     7     8 1   
    21     7    33 1   
    22     7    34 1   
    23     8     9 1   
    24     8    35 1   
    25     8    36 1   
    26     9    10 1   
    27     9    37 1   
    28     9    38 1   
    29    10    39 1   
    30    10    40 1   
    31    11    12 1   
    32    11    41 1   
    33    11    42 1   
    34    12    43 1   
    35    12    44 1   
    36    13    14 2   
    37    13    24 1   
    38    14    15 1   
    39    14    45 1   
    40    15    16 ar  
    41    15    20 ar  
    42    16    17 ar  
    43    16    21 1   
    44    17    18 ar  
    45    17    46 1   
    46    18    19 ar  
    47    18    22 1   
    48    19    20 ar  
    49    19    47 1   
    50    20    24 1   
    51    23    48 1   
    52    24    49 1   
@<TRIPOS>SUBSTRUCTURE
     1 J9E         1 TEMP              0 ****  ****    0 ROOT
