@<TRIPOS>MOLECULE
J9K
   61    62     1     0     0
SMALL
bcc


@<TRIPOS>ATOM
      1 C01          0.0000     0.0000     0.0000 c3         1 J9K      -0.037433
      2 C02          1.5300     0.0000     0.0000 c3         1 J9K       0.197800
      3 C03          2.0400     0.0000     1.4420 c3         1 J9K      -0.037433
      4 C04          2.0400    -1.2510    -0.7200 c3         1 J9K      -0.037433
      5 O05          2.0140     1.1850    -0.6850 os         1 J9K      -0.417900
      6 C06          1.6520     2.3760    -0.1750 c          1 J9K       0.686100
      7 O07          0.9510     2.4260     0.8170 o          1 J9K      -0.653000
      8 N08          2.0680     3.5160    -0.7630 ns         1 J9K      -0.175900
      9 C09          1.6750     4.8130    -0.2060 c3         1 J9K       0.052700
     10 C10          1.7080     5.8710    -1.3100 c3         1 J9K       0.069700
     11 S11          0.4510     5.4830    -2.5590 ss         1 J9K      -0.414200
     12 C12          0.6420     6.8280    -3.7620 c3         1 J9K       0.101700
     13 C13         -0.3650     6.6420    -4.8980 c3         1 J9K      -0.076400
     14 C14         -0.2060     7.7590    -5.8970 c          1 J9K       0.570100
     15 O15          0.6310     8.6190    -5.7190 o          1 J9K      -0.650100
     16 N16         -0.9930     7.8030    -6.9910 ns         1 J9K      -0.196900
     17 C17         -0.8390     8.8880    -7.9620 c3         1 J9K       0.120300
     18 C18         -1.8310     8.7050    -9.0810 ca         1 J9K      -0.250600
     19 C19         -3.0930     9.2730    -9.0010 ca         1 J9K      -0.051000
     20 C20         -3.9730     9.0790   -10.0550 ca         1 J9K      -0.222300
     21 C21         -3.5650     8.3310   -11.1440 ca         1 J9K       0.414200
     22 N22         -2.3570     7.8060   -11.1860 nb         1 J9K      -0.581000
     23 C23         -1.4920     7.9740   -10.2050 ca         1 J9K       0.422200
     24 C24          2.6470     5.2070     0.9080 c3         1 J9K       0.014900
     25 C25          2.5250     4.2300     2.0490 ca         1 J9K      -0.076300
     26 C26          3.3150     3.0960     2.0760 ca         1 J9K      -0.090000
     27 C27          3.2030     2.2000     3.1230 ca         1 J9K      -0.093500
     28 C28          2.3010     2.4390     4.1430 ca         1 J9K      -0.101000
     29 C29          1.5110     3.5730     4.1160 ca         1 J9K      -0.093500
     30 C30          1.6270     4.4710     3.0720 ca         1 J9K      -0.090000
     31 H01         -0.3610     0.5900     0.8340 hc         1 J9K       0.021033
     32 H01A        -0.3610    -1.0170     0.0940 hc         1 J9K       0.021033
     33 H01B        -0.3610     0.4270    -0.9280 hc         1 J9K       0.021033
     34 H03          3.0710     0.3330     1.4610 hc         1 J9K       0.021033
     35 H03A         1.4330     0.6700     2.0400 hc         1 J9K       0.021033
     36 H03B         1.9770    -1.0030     1.8470 hc         1 J9K       0.021033
     37 H04          1.6950    -2.1340    -0.1970 hc         1 J9K       0.021033
     38 H04A         3.1230    -1.2410    -0.7370 hc         1 J9K       0.021033
     39 H04B         1.6620    -1.2620    -1.7350 hc         1 J9K       0.021033
     40 HN08         2.6060     3.4760    -1.6060 hn         1 J9K       0.181500
     41 H09          0.6720     4.7440     0.1980 h1         1 J9K       0.075700
     42 H10          2.6870     5.8790    -1.7740 h1         1 J9K       0.043200
     43 H10A         1.5040     6.8450    -0.8820 h1         1 J9K       0.043200
     44 H12          1.6480     6.8120    -4.1650 h1         1 J9K       0.049200
     45 H12A         0.4640     7.7780    -3.2730 h1         1 J9K       0.049200
     46 H13         -1.3710     6.6590    -4.4960 hc         1 J9K       0.041200
     47 H13A        -0.1870     5.6920    -5.3870 hc         1 J9K       0.041200
     48 HN16        -1.6830     7.0930    -7.1400 hn         1 J9K       0.178500
     49 H17         -1.0170     9.8380    -7.4730 h1         1 J9K       0.031200
     50 H17A         0.1670     8.8720    -8.3650 h1         1 J9K       0.031200
     51 H19         -3.3850     9.8550    -8.1350 ha         1 J9K       0.114000
     52 H20         -4.9670     9.5090   -10.0250 ha         1 J9K       0.116000
     53 H21         -4.2480     8.1730   -11.9700 h4         1 J9K      -0.017900
     54 H23         -0.5080     7.5270   -10.2760 h4         1 J9K      -0.014900
     55 H24          3.6600     5.1910     0.5250 hc         1 J9K       0.022700
     56 H24A         2.4090     6.2040     1.2590 hc         1 J9K       0.022700
     57 H26          4.0220     2.9090     1.2770 ha         1 J9K       0.100500
     58 H27          3.8230     1.3120     3.1450 ha         1 J9K       0.101000
     59 H28          2.2120     1.7360     4.9630 ha         1 J9K       0.099000
     60 H29          0.8060     3.7610     4.9160 ha         1 J9K       0.101000
     61 H30          1.0080     5.3600     3.0510 ha         1 J9K       0.100500
@<TRIPOS>BOND
     1     1     2 1   
     2     1    31 1   
     3     1    32 1   
     4     1    33 1   
     5     2     3 1   
     6     2     4 1   
     7     2     5 1   
     8     3    34 1   
     9     3    35 1   
    10     3    36 1   
    11     4    37 1   
    12     4    38 1   
    13     4    39 1   
    14     5     6 1   
    15     6     7 2   
    16     6     8 1   
    17     8     9 1   
    18     8    40 1   
    19     9    10 1   
    20     9    24 1   
    21     9    41 1   
    22    10    11 1   
    23    10    42 1   
    24    10    43 1   
    25    11    12 1   
    26    12    13 1   
    27    12    44 1   
    28    12    45 1   
    29    13    14 1   
    30    13    46 1   
    31    13    47 1   
    32    14    15 2   
    33    14    16 1   
    34    16    17 1   
    35    16    48 1   
    36    17    18 1   
    37    17    49 1   
    38    17    50 1   
    39    18    19 ar  
    40    18    23 ar  
    41    19    20 ar  
    42    19    51 1   
    43    20    21 ar  
    44    20    52 1   
    45    21    22 ar  
    46    21    53 1   
    47    22    23 ar  
    48    23    54 1   
    49    24    25 1   
    50    24    55 1   
    51    24    56 1   
    52    25    26 ar  
    53    25    30 ar  
    54    26    27 ar  
    55    26    57 1   
    56    27    28 ar  
    57    27    58 1   
    58    28    29 ar  
    59    28    59 1   
    60    29    30 ar  
    61    29    60 1   
    62    30    61 1   
@<TRIPOS>SUBSTRUCTURE
     1 J9K         1 TEMP              0 ****  ****    0 ROOT
