@<TRIPOS>MOLECULE
molecule
   61    61     1     0     0
SMALL
bcc


@<TRIPOS>ATOM
      1 C01          0.0000     0.0000     0.0000 c3         1 J9P      -0.091100
      2 C02          1.5300     0.0000     0.0000 c3         1 J9P      -0.086400
      3 C03          2.0400     0.0000     1.4420 c3         1 J9P      -0.078400
      4 C04          3.5700    -0.0000     1.4420 c3         1 J9P      -0.107400
      5 C05          4.0800    -0.0010     2.8840 c3         1 J9P       0.154800
      6 C06          3.5710    -1.2500     3.6050 c3         1 J9P      -0.080100
      7 C07          5.6100    -0.0010     2.8840 c3         1 J9P      -0.076200
      8 C08          6.1130    -0.1250     4.3000 c2         1 J9P      -0.152200
      9 C09          6.9450    -1.0860     4.6160 c2         1 J9P      -0.175200
     10 C10          7.4480    -1.2100     6.0320 c3         1 J9P      -0.025500
     11 C11          7.1760    -2.6330     6.5830 c3         1 J9P       0.148100
     12 C12          8.2550    -2.7720     7.6860 c3         1 J9P      -0.230400
     13 C13          9.4760    -2.0770     7.1110 c          1 J9P       0.582100
     14 C15          8.9850    -1.0880     6.0740 c3         1 J9P      -0.175700
     15 C16          9.3860     0.3330     6.4750 c3         1 J9P      -0.065400
     16 C17         10.9070     0.4770     6.3930 c3         1 J9P      -0.093400
     17 C18         11.3070     1.8980     6.7940 c3         1 J9P      -0.079400
     18 C19         12.8280     2.0420     6.7120 c3         1 J9P      -0.087400
     19 C20         13.2280     3.4630     7.1130 c3         1 J9P      -0.063400
     20 C21         14.7490     3.6070     7.0310 c3         1 J9P      -0.182400
     21 C22         15.1430     5.0060     7.4260 c          1 J9P       0.890600
     22 O14         10.6260    -2.2750     7.4230 o          1 J9P      -0.499100
     23 O23         16.4380     5.3630     7.4280 o          1 J9P      -0.858800
     24 O24         14.2960     5.8060     7.7420 o          1 J9P      -0.858800
     25 O25          5.8640    -2.7200     7.1430 oh         1 J9P      -0.596800
     26 O26          3.6040     1.1660     3.5580 oh         1 J9P      -0.600800
     27 H1          -0.3610     0.8760     0.5250 hc         1 J9P       0.031700
     28 H2          -0.3610    -0.8930     0.4960 hc         1 J9P       0.031700
     29 H3          -0.3610     0.0170    -1.0210 hc         1 J9P       0.031700
     30 H4           1.8910    -0.8840    -0.5110 hc         1 J9P       0.037700
     31 H5           1.8910     0.8840    -0.5110 hc         1 J9P       0.037700
     32 H6           1.6790    -0.8840     1.9520 hc         1 J9P       0.050700
     33 H7           1.6790     0.8840     1.9520 hc         1 J9P       0.050700
     34 H8           3.9310    -0.8840     0.9300 hc         1 J9P       0.042700
     35 H9           3.9310     0.8850     0.9310 hc         1 J9P       0.042700
     36 H10          3.9980    -1.2920     4.6000 hc         1 J9P       0.046700
     37 H11          2.4910    -1.2090     3.6780 hc         1 J9P       0.046700
     38 H12          3.8630    -2.1320     3.0500 hc         1 J9P       0.046700
     39 H13          5.9710     0.9250     2.4530 hc         1 J9P       0.050700
     40 H14          5.9710    -0.8370     2.2980 hc         1 J9P       0.050700
     41 H15          5.7870     0.5800     5.0550 ha         1 J9P       0.141000
     42 H16          7.2710    -1.7910     3.8610 ha         1 J9P       0.120000
     43 H17          6.9920    -0.4640     6.6710 hc         1 J9P       0.082700
     44 H18          7.3220    -3.3770     5.8100 h1         1 J9P       0.041700
     45 H19          7.9320    -2.2770     8.5940 hc         1 J9P       0.076200
     46 H20          8.4700    -3.8170     7.8740 hc         1 J9P       0.076200
     47 H21          9.4010    -1.3350     5.1050 hc         1 J9P       0.080700
     48 H22          9.0590     0.5270     7.4900 hc         1 J9P       0.047200
     49 H23          8.9190     1.0430     5.8040 hc         1 J9P       0.047200
     50 H24         11.3740    -0.2330     7.0640 hc         1 J9P       0.050200
     51 H25         11.2330     0.2830     5.3780 hc         1 J9P       0.050200
     52 H26         10.9800     2.0920     7.8080 hc         1 J9P       0.037200
     53 H27         10.8400     2.6080     6.1220 hc         1 J9P       0.037200
     54 H28         13.1550     1.8480     5.6980 hc         1 J9P       0.030700
     55 H29         13.2950     1.3320     7.3840 hc         1 J9P       0.030700
     56 H30         12.7610     4.1730     6.4420 hc         1 J9P       0.044200
     57 H31         12.9010     3.6570     8.1280 hc         1 J9P       0.044200
     58 H32         15.0760     3.4130     6.0160 hc         1 J9P       0.027200
     59 H33         15.2160     2.8970     7.7020 hc         1 J9P       0.027200
     60 H35          5.6530    -3.6230     7.3100 ho         1 J9P       0.399000
     61 H36          3.9860     1.9330     3.1660 ho         1 J9P       0.401000
@<TRIPOS>BOND
     1    26     5 1
     2     6     5 1
     3     5     4 1
     4     5     7 1
     5     4     3 1
     6    25    11 1
     7     7     8 1
     8     2     3 1
     9     2     1 1
    10     8     9 2
    11    11    10 1
    12    11    12 1
    13     9    10 1
    14    10    14 1
    15    12    13 1
    16    14    13 1
    17    14    15 1
    18    13    22 2
    19    15    16 1
    20    16    17 1
    21    17    18 1
    22    18    19 1
    23    19    20 1
    24    24    21 1
    25    20    21 1
    26    21    23 1
    27     1    27 1
    28     1    28 1
    29     1    29 1
    30     2    30 1
    31     2    31 1
    32     3    32 1
    33     3    33 1
    34     4    34 1
    35     4    35 1
    36     6    36 1
    37     6    37 1
    38     6    38 1
    39     7    39 1
    40     7    40 1
    41     8    41 1
    42     9    42 1
    43    10    43 1
    44    11    44 1
    45    12    45 1
    46    12    46 1
    47    14    47 1
    48    15    48 1
    49    15    49 1
    50    16    50 1
    51    16    51 1
    52    17    52 1
    53    17    53 1
    54    18    54 1
    55    18    55 1
    56    19    56 1
    57    19    57 1
    58    20    58 1
    59    20    59 1
    60    25    60 1
    61    26    61 1
@<TRIPOS>SUBSTRUCTURE
     1 J9P         1 TEMP              0 ****  ****    0 ROOT
