@<TRIPOS>MOLECULE
J9S
   59    62     1     0     0
SMALL
bcc


@<TRIPOS>ATOM
      1 N12          0.0000     0.0000     0.0000 n7         1 J9S      -0.551100
      2 C13          1.4650     0.0000     0.0000 c3         1 J9S       0.191800
      3 C17          5.0860    -0.2130     0.3640 c          1 J9S       0.967600
      4 C20          3.5340    -0.7550     3.1260 c3         1 J9S       0.135300
      5 C21          2.9820    -2.0370     3.6950 cc         1 J9S       0.025600
      6 C22          3.6010    -3.2180     3.6710 cd         1 J9S      -0.145000
      7 C24          1.7090    -3.9200     4.7550 cc         1 J9S      -0.029100
      8 C28          2.9400     1.1170    -1.6920 ca         1 J9S       0.214100
      9 C02         -0.3810    -7.3370     0.3540 c          1 J9S       0.596700
     10 N03          0.3870    -6.5730    -0.4410 ns         1 J9S       0.047900
     11 C04          0.1140    -5.2340    -0.6190 ca         1 J9S      -0.033400
     12 C05         -0.9860    -4.6550     0.0410 ca         1 J9S      -0.170800
     13 C06         -1.8170    -5.4950     0.9060 cc         1 J9S       0.011800
     14 C07         -1.4980    -6.8060     1.0340 cd         1 J9S      -0.234200
     15 C08         -1.2680    -3.2960    -0.1350 ca         1 J9S       0.075000
     16 C09         -0.4720    -2.5390    -0.9490 ca         1 J9S      -0.192500
     17 S10         -0.8290    -0.8280    -1.1710 sy         1 J9S       1.034200
     18 O11         -2.2090    -0.6640    -0.8780 o          1 J9S      -0.593300
     19 C14          1.9670     0.0000     1.4210 c          1 J9S       0.582100
     20 N15          3.1220    -0.6250     1.7270 n          1 J9S      -0.068800
     21 C16          3.9630    -1.1720     0.6610 c3         1 J9S      -0.111000
     22 O18          5.9620    -0.4870    -0.6160 o          1 J9S      -0.886800
     23 O19          5.1980     0.8040     1.0060 o          1 J9S      -0.886800
     24 C23          2.8980    -4.2580     4.2560 cd         1 J9S      -0.124000
     25 S25          1.4270    -2.2030     4.5000 ss         1 J9S      -0.272800
     26 O26          1.3330     0.5630     2.2880 o          1 J9S      -0.689100
     27 C27          1.9670     1.2300    -0.7110 ca         1 J9S      -0.150300
     28 O29          3.4390    -0.1060    -2.0190 os         1 J9S      -0.304900
     29 C30          4.4660    -0.1430    -3.0110 c3         1 J9S       0.247700
     30 C31          3.4010     2.2510    -2.3460 ca         1 J9S      -0.197000
     31 C32          2.8890     3.4910    -2.0160 ca         1 J9S      -0.055000
     32 C33          1.9180     3.6020    -1.0380 ca         1 J9S      -0.165000
     33 C34          1.4580     2.4730    -0.3860 ca         1 J9S      -0.033000
     34 O35         -0.2470    -0.4550    -2.4130 o          1 J9S      -0.593300
     35 C36          0.6130    -3.1080    -1.6030 ca         1 J9S       0.053000
     36 C37          0.9090    -4.4440    -1.4430 ca         1 J9S      -0.183000
     37 H121        -0.5000     0.4880     0.7170 hn         1 J9S       0.367800
     38 H131         1.8260    -0.8850    -0.5100 h1         1 J9S       0.057700
     39 H202         3.1540     0.0850     3.6950 h1         1 J9S       0.053200
     40 H201         4.6160    -0.7710     3.1840 h1         1 J9S       0.053200
     41 H221         4.5800    -3.3540     3.2270 ha         1 J9S       0.130000
     42 H241         1.0230    -4.5980     5.2490 h4         1 J9S       0.138000
     43 H071        -2.1030    -7.4490     1.6620 ha         1 J9S       0.131000
     44 H081        -2.1700    -2.8710     0.2890 ha         1 J9S       0.127000
     45 H162         3.3670    -1.3180    -0.2310 h1         1 J9S       0.033700
     46 H161         4.3760    -2.1220     0.9790 h1         1 J9S       0.033700
     47 H231         3.2840    -5.2690     4.3030 ha         1 J9S       0.110000
     48 H303         4.8510    -1.1530    -3.0950 h1         1 J9S       0.002367
     49 H302         5.2690     0.5260    -2.7270 h1         1 J9S       0.002367
     50 H301         4.0580     0.1670    -3.9660 h1         1 J9S       0.002367
     51 H311         4.1610     2.1650    -3.1120 ha         1 J9S       0.119000
     52 H321         3.2470     4.3770    -2.5260 ha         1 J9S       0.085000
     53 H331         1.5180     4.5750    -0.7810 ha         1 J9S       0.092000
     54 H341         0.6970     2.5630     0.3810 ha         1 J9S       0.106000
     55 H361         1.2330    -2.4940    -2.2440 ha         1 J9S       0.137000
     56 H371         1.7580    -4.8770    -1.9570 ha         1 J9S       0.120000
     57 H031         1.1700    -6.9830    -0.9110 hn         1 J9S       0.176500
     58 O01         -0.1090    -8.5170     0.4890 o          1 J9S      -0.700500
     59 H061        -2.5170    -5.0370     1.5950 ha         1 J9S       0.111000
@<TRIPOS>BOND
     1     1     2 1   
     2     1    17 1   
     3     1    37 1   
     4     2    19 1   
     5     2    27 1   
     6     2    38 1   
     7     3    21 1   
     8     3    22 1   
     9     3    23 1   
    10     4     5 1   
    11     4    20 1   
    12     4    39 1   
    13     4    40 1   
    14     5     6 2   
    15     5    25 1   
    16     6    24 1   
    17     6    41 1   
    18     7    24 2   
    19     7    25 1   
    20     7    42 1   
    21     8    27 ar  
    22     8    28 1   
    23     8    30 ar  
    24     9    10 1   
    25     9    14 1   
    26     9    58 2   
    27    10    11 1   
    28    10    57 1   
    29    11    12 ar  
    30    11    36 ar  
    31    12    13 1   
    32    12    15 ar  
    33    13    14 2   
    34    13    59 1   
    35    14    43 1   
    36    15    16 ar  
    37    15    44 1   
    38    16    17 1   
    39    16    35 ar  
    40    17    18 2   
    41    17    34 2   
    42    19    20 1   
    43    19    26 2   
    44    20    21 1   
    45    21    45 1   
    46    21    46 1   
    47    24    47 1   
    48    27    33 ar  
    49    28    29 1   
    50    29    48 1   
    51    29    49 1   
    52    29    50 1   
    53    30    31 ar  
    54    30    51 1   
    55    31    32 ar  
    56    31    52 1   
    57    32    33 ar  
    58    32    53 1   
    59    33    54 1   
    60    35    36 ar  
    61    35    55 1   
    62    36    56 1   
@<TRIPOS>SUBSTRUCTURE
     1 J9S         1 TEMP              0 ****  ****    0 ROOT
