@<TRIPOS>MOLECULE
molecule
   59    62     1     0     0
SMALL
bcc


@<TRIPOS>ATOM
      1 N12          0.0000     0.0000     0.0000 n7         1 J9V      -0.885100
      2 C13          1.4650     0.0000     0.0000 c3         1 J9V       0.223800
      3 C17          2.6260     3.0710     0.8990 c          1 J9V       0.869600
      4 C20          3.5250     0.7580     3.1340 c3         1 J9V       0.189300
      5 C21          4.6810    -0.2090     3.1370 cc         1 J9V      -0.020400
      6 C22          5.9530     0.1130     2.9000 cd         1 J9V      -0.171000
      7 C24          6.2940    -2.1280     3.2420 cc         1 J9V      -0.105100
      8 C28          3.2010    -1.2090    -1.3460 ca         1 J9V       0.152100
      9 C02         -0.3790    -2.8400    -6.7740 c          1 J9V       0.697700
     10 N03          0.3890    -1.8300    -6.3280 ns         1 J9V      -0.426100
     11 C04          0.1150    -1.2060    -5.1310 ca         1 J9V       0.121600
     12 C05         -0.9850    -1.6290    -4.3610 ca         1 J9V      -0.175800
     13 C06         -1.8160    -2.7290    -4.8550 cd         1 J9V      -0.022200
     14 C07         -1.4960    -3.2980    -6.0430 cc         1 J9V      -0.257200
     15 C08         -1.2670    -0.9990    -3.1440 ca         1 J9V       0.027000
     16 C09         -0.4730     0.0240    -2.7110 ca         1 J9V      -0.308500
     17 S10         -0.8280     0.8170    -1.1780 sy         1 J9V       1.415200
     18 O11         -2.2090     0.5980    -0.9240 o          1 J9V      -0.617300
     19 C14          1.9670     0.0000     1.4210 c          1 J9V       0.686100
     20 N15          2.9590     0.8370     1.7860 n          1 J9V      -0.430800
     21 C16          3.4710     1.8250     0.8330 c3         1 J9V      -0.033000
     22 O18          2.8450     4.0780     0.0390 o          1 J9V      -0.831300
     23 O19          1.7500     3.1640     1.7260 o          1 J9V      -0.831300
     24 C23          6.8440    -0.9460     2.9580 cd         1 J9V      -0.160000
     25 S25          4.5600    -1.9330     3.4620 ss         1 J9V      -0.142800
     26 O26          1.4790    -0.7530     2.2370 o          1 J9V      -0.654100
     27 C27          1.9690    -1.2300    -0.7110 ca         1 J9V      -0.129300
     28 O29          3.9600    -0.0810    -1.3230 os         1 J9V      -0.310900
     29 C30          5.2690    -0.1690    -1.8900 c3         1 J9V       0.129700
     30 C31          3.6610    -2.3440    -1.9990 ca         1 J9V      -0.225000
     31 C32          2.8910    -3.4910    -2.0150 ca         1 J9V      -0.094000
     32 C33          1.6620    -3.5080    -1.3810 ca         1 J9V      -0.175000
     33 C34          1.2010    -2.3790    -0.7300 ca         1 J9V      -0.065000
     34 O35         -0.2470     2.1120    -1.2530 o          1 J9V      -0.617300
     35 C36          0.6140     0.4440    -3.4680 ca         1 J9V       0.021000
     36 C37          0.9100    -0.1620    -4.6700 ca         1 J9V      -0.219000
     37 H121        -0.5000    -0.4510     0.7410 hn         1 J9V       0.466800
     38 H131         1.8260     0.8850    -0.5100 h1         1 J9V       0.125700
     39 H202         3.8740     1.7380     3.4370 h1         1 J9V       0.076700
     40 H201         2.7650     0.4150     3.8250 h1         1 J9V       0.076700
     41 H221         6.2670     1.1260     2.6800 ha         1 J9V       0.151000
     42 H241         6.8340    -3.0630     3.3280 h4         1 J9V       0.155000
     43 H071        -2.1020    -4.1060    -6.4340 ha         1 J9V       0.159000
     44 H081        -2.2980    -1.1590    -2.8510 ha         1 J9V       0.159000
     45 H162         4.4960     2.0710     1.0830 h1         1 J9V       0.053200
     46 H161         3.4320     1.4150    -0.1690 h1         1 J9V       0.053200
     47 H231         7.9060    -0.8250     2.7840 ha         1 J9V       0.132000
     48 H302         5.8210    -0.9640    -1.4040 h1         1 J9V       0.039367
     49 H301         5.7880     0.7710    -1.7470 h1         1 J9V       0.039367
     50 H303         5.1900    -0.3800    -2.9500 h1         1 J9V       0.039367
     51 H311         4.6240    -2.3300    -2.4950 ha         1 J9V       0.129000
     52 H321         3.2500    -4.3770    -2.5250 ha         1 J9V       0.120000
     53 H331         1.0600    -4.4080    -1.3950 ha         1 J9V       0.122000
     54 H341         0.2380    -2.3950    -0.2340 ha         1 J9V       0.142000
     55 H361         0.8870     1.4740    -3.6600 ha         1 J9V       0.176000
     56 H371         1.5360     0.3630    -5.3810 ha         1 J9V       0.137000
     57 H031         1.1710    -1.5280    -6.8740 hn         1 J9V       0.338500
     58 O01         -0.1070    -3.3700    -7.8380 o          1 J9V      -0.659500
     59 H061        -2.7800    -2.9250    -4.4020 ha         1 J9V       0.142000
@<TRIPOS>BOND
     1    58     9 2
     2     9    14 1
     3     9    10 1
     4    14    13 2
     5    10    11 1
     6    13    12 1
     7    11    12 ar
     8    11    36 ar
     9    12    15 ar
    10    36    35 ar
    11    15    16 ar
    12     7    24 2
    13     7    25 1
    14    35    16 ar
    15    16    17 1
    16    24     6 1
    17    25     5 1
    18    34    17 2
    19    18    17 2
    20    17     1 1
    21     6     5 2
    22     5     4 1
    23    21    20 1
    24    21     3 1
    25     1     2 1
    26    26    19 2
    27    20    19 1
    28    20     4 1
    29    19     2 1
    30     2    27 1
    31    23     3 1
    32     3    22 1
    33    28    29 1
    34    28     8 1
    35    27     8 ar
    36    27    33 ar
    37     8    30 ar
    38    33    32 ar
    39    30    31 ar
    40    32    31 ar
    41     1    37 1
    42     2    38 1
    43     4    39 1
    44     4    40 1
    45     6    41 1
    46     7    42 1
    47    10    57 1
    48    13    59 1
    49    14    43 1
    50    15    44 1
    51    21    45 1
    52    21    46 1
    53    24    47 1
    54    29    48 1
    55    29    49 1
    56    29    50 1
    57    30    51 1
    58    31    52 1
    59    32    53 1
    60    33    54 1
    61    35    55 1
    62    36    56 1
@<TRIPOS>SUBSTRUCTURE
     1 J9V         1 TEMP              0 ****  ****    0 ROOT
