@<TRIPOS>MOLECULE
molecule
   42    44     1     0     0
SMALL
bcc


@<TRIPOS>ATOM
      1 C1           0.0000     0.0000     0.0000 ca         1 J9Z      -0.128000
      2 N1          -2.3220    -2.0940     2.4490 ns         1 J9Z      -0.529900
      3 O1          -2.4050    -4.1020     1.5020 o          1 J9Z      -0.621100
      4 P1          -6.3830    -0.4100     2.2820 p5         1 J9Z       1.168900
      5 C2           1.3830     0.0000     0.0000 ca         1 J9Z      -0.136000
      6 O2          -7.0680    -1.7730     2.6380 o          1 J9Z      -0.905500
      7 C3           2.0740     0.0000     1.1970 ca         1 J9Z      -0.158000
      8 S3          -1.4810    -3.2530     5.2600 ss         1 J9Z      -0.059500
      9 C4           1.3830     0.0010     2.3940 ca         1 J9Z      -0.136000
     10 O4          -6.9810     0.1410     0.9430 o          1 J9Z      -0.905500
     11 C5           0.0010     0.0030     2.3950 ca         1 J9Z      -0.128000
     12 O5          -6.6420     0.6210     3.4330 o          1 J9Z      -0.905500
     13 C6          -0.6910     0.0020     1.1970 ca         1 J9Z      -0.054300
     14 C7          -2.1980     0.0030     1.1970 c3         1 J9Z      -0.050100
     15 C8          -2.7100    -1.4390     1.1970 c3         1 J9Z       0.112700
     16 C9          -1.0460    -7.1490     5.6610 ca         1 J9Z      -0.089000
     17 C10         -0.6850    -7.3660     6.9530 ca         1 J9Z      -0.149000
     18 C11         -0.5400    -6.3050     7.8370 ca         1 J9Z      -0.137000
     19 C12         -0.7620    -5.0160     7.4110 ca         1 J9Z      -0.092000
     20 C13         -1.1350    -4.7670     6.0860 ca         1 J9Z      -0.023100
     21 C14         -1.2810    -5.8340     5.1910 ca         1 J9Z      -0.074800
     22 C15         -1.6570    -5.4120     3.9060 cc         1 J9Z      -0.102200
     23 C16         -1.8080    -4.0930     3.7530 cd         1 J9Z      -0.050600
     24 C18         -4.2340    -1.4390     1.0720 c3         1 J9Z       0.202400
     25 H3           3.1570    -0.0010     1.1970 ha         1 J9Z       0.106000
     26 H1          -0.5420    -0.0010    -0.9380 ha         1 J9Z       0.134000
     27 H5          -0.5410     0.0040     3.3330 ha         1 J9Z       0.134000
     28 H4           1.9250     0.0010     3.3320 ha         1 J9Z       0.111500
     29 H7          -2.5580     0.5140     2.0820 hc         1 J9Z       0.084200
     30 H2           1.9240    -0.0010    -0.9380 ha         1 J9Z       0.111500
     31 H7A         -2.5590     0.5140     0.3130 hc         1 J9Z       0.084200
     32 H8          -2.2790    -1.9750     0.3610 h1         1 J9Z       0.048700
     33 H10         -0.5080    -8.3780     7.2970 ha         1 J9Z       0.114000
     34 H11         -0.2520    -6.4920     8.8640 ha         1 J9Z       0.117000
     35 H12         -0.6480    -4.1920     8.1040 ha         1 J9Z       0.127000
     36 H15         -1.8140    -6.1090     3.0920 ha         1 J9Z       0.167000
     37 HN1         -2.1590    -1.5470     3.2710 hn         1 J9Z       0.316500
     38 H18         -4.5170    -1.0350     0.1080 h1         1 J9Z       0.032700
     39 H18A        -4.6030    -2.4540     1.1600 h1         1 J9Z       0.032700
     40 C17         -2.1970    -3.4350     2.4970 c          1 J9Z       0.692300
     41 O3          -4.7980    -0.6350     2.1100 os         1 J9Z      -0.585200
     42 H9          -1.1540    -7.9890     4.9850 ha         1 J9Z       0.125000
@<TRIPOS>BOND
     1     1     5 ar
     2     1    13 ar
     3     1    26 1
     4     2    15 1
     5     2    40 1
     6     2    37 1
     7     3    40 2
     8     4     6 1
     9     4    41 1
    10     4    10 1
    11     4    12 1
    12     5     7 ar
    13     5    30 1
    14     7     9 ar
    15     7    25 1
    16    41    24 1
    17     8    20 1
    18     8    23 1
    19     9    11 ar
    20     9    28 1
    21    11    13 ar
    22    11    27 1
    23    13    14 1
    24    14    15 1
    25    14    29 1
    26    14    31 1
    27    15    24 1
    28    15    32 1
    29    16    17 ar
    30    16    21 ar
    31    16    42 1
    32    17    18 ar
    33    17    33 1
    34    18    19 ar
    35    18    34 1
    36    19    20 ar
    37    19    35 1
    38    20    21 ar
    39    21    22 1
    40    22    23 2
    41    22    36 1
    42    23    40 1
    43    24    38 1
    44    24    39 1
@<TRIPOS>SUBSTRUCTURE
     1 J9Z         1 TEMP              0 ****  ****    0 ROOT
