@<TRIPOS>MOLECULE
J9Z
   42    44     1     0     0
SMALL
bcc


@<TRIPOS>ATOM
      1 C1           0.0000     0.0000     0.0000 ca         1 J9Z      -0.103000
      2 N1          -2.3220    -2.0940     2.4490 ns         1 J9Z      -0.110900
      3 O1          -2.4050    -4.1020     1.5020 o          1 J9Z      -0.678100
      4 P1          -6.3830    -0.4100     2.2820 p5         1 J9Z       0.673900
      5 C2           1.3830     0.0000     0.0000 ca         1 J9Z      -0.112000
      6 O2          -7.0680    -1.7730     2.6380 o          1 J9Z      -0.731833
      7 C3           2.0740     0.0000     1.1970 ca         1 J9Z      -0.138000
      8 S3          -1.4810    -3.2530     5.2600 ss         1 J9Z      -0.199500
      9 C4           1.3830     0.0010     2.3940 ca         1 J9Z      -0.112000
     10 O4          -6.9810     0.1410     0.9430 o          1 J9Z      -0.731833
     11 C5           0.0010     0.0030     2.3950 ca         1 J9Z      -0.103000
     12 O5          -6.6420     0.6210     3.4330 o          1 J9Z      -0.731833
     13 C6          -0.6910     0.0020     1.1970 ca         1 J9Z      -0.057300
     14 C7          -2.1980     0.0030     1.1970 c3         1 J9Z       0.009900
     15 C8          -2.7100    -1.4390     1.1970 c3         1 J9Z      -0.011300
     16 C9          -1.0460    -7.1490     5.6610 ca         1 J9Z      -0.068000
     17 C10         -0.6850    -7.3660     6.9530 ca         1 J9Z      -0.121000
     18 C11         -0.5400    -6.3050     7.8370 ca         1 J9Z      -0.134000
     19 C12         -0.7620    -5.0160     7.4110 ca         1 J9Z      -0.051000
     20 C13         -1.1350    -4.7670     6.0860 ca         1 J9Z       0.013900
     21 C14         -1.2810    -5.8340     5.1910 ca         1 J9Z      -0.073800
     22 C15         -1.6570    -5.4120     3.9060 cc         1 J9Z      -0.077200
     23 C16         -1.8080    -4.0930     3.7530 cd         1 J9Z      -0.015600
     24 C18         -4.2340    -1.4390     1.0720 c3         1 J9Z       0.265400
     25 H3           3.1570    -0.0010     1.1970 ha         1 J9Z       0.084000
     26 H1          -0.5420    -0.0010    -0.9380 ha         1 J9Z       0.112500
     27 H5          -0.5410     0.0040     3.3330 ha         1 J9Z       0.112500
     28 H4           1.9250     0.0010     3.3320 ha         1 J9Z       0.087000
     29 H7          -2.5580     0.5140     2.0820 hc         1 J9Z       0.052200
     30 H2           1.9240    -0.0010    -0.9380 ha         1 J9Z       0.087000
     31 H7A         -2.5590     0.5140     0.3130 hc         1 J9Z       0.052200
     32 H8          -2.2790    -1.9750     0.3610 h1         1 J9Z       0.024700
     33 H10         -0.5080    -8.3780     7.2970 ha         1 J9Z       0.087000
     34 H11         -0.2520    -6.4920     8.8640 ha         1 J9Z       0.091000
     35 H12         -0.6480    -4.1920     8.1040 ha         1 J9Z       0.101000
     36 H15         -1.8140    -6.1090     3.0920 ha         1 J9Z       0.135000
     37 HN1         -2.1590    -1.5470     3.2710 hn         1 J9Z       0.176500
     38 H18         -4.5170    -1.0350     0.1080 h1         1 J9Z      -0.008800
     39 H18A        -4.6030    -2.4540     1.1600 h1         1 J9Z      -0.008800
     40 C17         -2.1970    -3.4350     2.4970 c          1 J9Z       0.606300
     41 O3          -4.7980    -0.6350     2.1100 os         1 J9Z      -0.487200
     42 H9          -1.1540    -7.9890     4.9850 ha         1 J9Z       0.096000
@<TRIPOS>BOND
     1     1     5 ar  
     2     1    13 ar  
     3     1    26 1   
     4     2    15 1   
     5     2    37 1   
     6     2    40 1   
     7     3    40 2   
     8     4     6 1   
     9     4    10 1   
    10     4    12 1   
    11     4    41 1   
    12     5     7 ar  
    13     5    30 1   
    14     7     9 ar  
    15     7    25 1   
    16     8    20 1   
    17     8    23 1   
    18     9    11 ar  
    19     9    28 1   
    20    11    13 ar  
    21    11    27 1   
    22    13    14 1   
    23    14    15 1   
    24    14    29 1   
    25    14    31 1   
    26    15    24 1   
    27    15    32 1   
    28    16    17 ar  
    29    16    21 ar  
    30    16    42 1   
    31    17    18 ar  
    32    17    33 1   
    33    18    19 ar  
    34    18    34 1   
    35    19    20 ar  
    36    19    35 1   
    37    20    21 ar  
    38    21    22 1   
    39    22    23 2   
    40    22    36 1   
    41    23    40 1   
    42    24    38 1   
    43    24    39 1   
    44    24    41 1   
@<TRIPOS>SUBSTRUCTURE
     1 J9Z         1 TEMP              0 ****  ****    0 ROOT
