@<TRIPOS>MOLECULE
molecule
   44    45     1     0     0
SMALL
bcc


@<TRIPOS>ATOM
      1 C            0.0000     0.0000     0.0000 ca         1 JA1       0.093100
      2 N            7.6750    -0.0280    -0.9790 no         1 JA1       0.294200
      3 O           -0.6810     0.0000    -1.1760 oh         1 JA1      -0.503100
      4 C1           1.3920     0.0000     0.0000 ca         1 JA1       0.109100
      5 O1           2.0730     0.0010    -1.1770 os         1 JA1      -0.237200
      6 C2           3.4310    -0.0060    -1.1290 ca         1 JA1       0.147100
      7 O2           8.2780    -1.0850    -0.9620 o          1 JA1      -0.203500
      8 C3           4.1190    -1.2110    -1.1090 ca         1 JA1      -0.148500
      9 O3           8.2890     1.0240    -0.9530 o          1 JA1      -0.203500
     10 C4           5.5000    -1.2150    -1.0610 ca         1 JA1      -0.062000
     11 C5           6.1950    -0.0200    -1.0310 ca         1 JA1      -0.161200
     12 C6           5.5120     1.1810    -1.0490 ca         1 JA1      -0.062000
     13 C7           4.1310     1.1910    -1.1040 ca         1 JA1      -0.148500
     14 C8           2.0820     0.0000     1.2020 ca         1 JA1      -0.193000
     15 C9           1.3890    -0.0000     2.3970 ca         1 JA1      -0.100000
     16 C10          0.0060    -0.0010     2.3970 ca         1 JA1      -0.091300
     17 C11         -0.7450    -0.0010     3.7040 c3         1 JA1      -0.034100
     18 C12         -0.9990     1.4410     4.1460 c3         1 JA1      -0.078400
     19 C13         -1.7620     1.4410     5.4730 c3         1 JA1      -0.083400
     20 C14         -2.0170     2.8830     5.9150 c3         1 JA1      -0.081400
     21 C15         -2.7800     2.8830     7.2420 c3         1 JA1      -0.084400
     22 C16         -3.0340     4.3250     7.6840 c3         1 JA1      -0.092100
     23 C17         -0.6890     0.0050     1.2020 ca         1 JA1      -0.133000
     24 HO          -1.0960    -0.8370    -1.2990 ho         1 JA1       0.419000
     25 H3           3.5750    -2.1470    -1.1320 ha         1 JA1       0.163000
     26 H4           6.0390    -2.1550    -1.0450 ha         1 JA1       0.171000
     27 H6           6.0600     2.1160    -1.0310 ha         1 JA1       0.171000
     28 H7           3.5960     2.1330    -1.1190 ha         1 JA1       0.163000
     29 H8           3.1660     0.0000     1.2040 ha         1 JA1       0.143000
     30 H9           1.9290    -0.0000     3.3350 ha         1 JA1       0.139000
     31 H11         -0.1590    -0.5120     4.4580 hc         1 JA1       0.050200
     32 H11A        -1.6920    -0.5120     3.5760 hc         1 JA1       0.050200
     33 H12         -1.5860     1.9520     3.3920 hc         1 JA1       0.046700
     34 H12A        -0.0530     1.9520     4.2740 hc         1 JA1       0.046700
     35 H13         -2.7090     0.9300     5.3450 hc         1 JA1       0.041700
     36 H13A        -1.1750     0.9310     6.2270 hc         1 JA1       0.041700
     37 H14         -2.6040     3.3930     5.1610 hc         1 JA1       0.042700
     38 H14A        -1.0700     3.3940     6.0420 hc         1 JA1       0.042700
     39 H15         -2.1930     2.3720     7.9950 hc         1 JA1       0.039700
     40 H15A        -3.7260     2.3720     7.1140 hc         1 JA1       0.039700
     41 H16         -3.5740     4.3250     8.6230 hc         1 JA1       0.033367
     42 H16A        -3.6200     4.8360     6.9300 hc         1 JA1       0.033367
     43 H16B        -2.0870     4.8350     7.8120 hc         1 JA1       0.033367
     44 H17         -1.7720     0.0040     1.2060 ha         1 JA1       0.147000
@<TRIPOS>BOND
     1     4     1 ar
     2    23     1 ar
     3     1     3 1
     4    11     2 1
     5     2     7 1
     6     2     9 1
     7     3    24 1
     8    14     4 ar
     9     4     5 1
    10     5     6 1
    11     6    13 ar
    12     6     8 ar
    13     8    10 ar
    14     8    25 1
    15    10    11 ar
    16    10    26 1
    17    12    11 ar
    18    13    12 ar
    19    12    27 1
    20    13    28 1
    21    15    14 ar
    22    14    29 1
    23    15    16 ar
    24    15    30 1
    25    17    16 1
    26    16    23 ar
    27    17    18 1
    28    17    31 1
    29    17    32 1
    30    19    18 1
    31    18    33 1
    32    18    34 1
    33    19    20 1
    34    19    35 1
    35    19    36 1
    36    20    21 1
    37    20    37 1
    38    20    38 1
    39    21    22 1
    40    21    39 1
    41    21    40 1
    42    22    41 1
    43    22    42 1
    44    22    43 1
    45    23    44 1
@<TRIPOS>SUBSTRUCTURE
     1 JA1         1 TEMP              0 ****  ****    0 ROOT
