@<TRIPOS>MOLECULE
molecule
   33    34     1     0     0
SMALL
bcc


@<TRIPOS>ATOM
      1 N1           0.0000     0.0000     0.0000 na         1 JA2      -0.261300
      2 C2           1.3810     0.0000     0.0000 ca         1 JA2      -0.087200
      3 C3           1.7680     0.0000     1.3500 ca         1 JA2       0.087400
      4 C4           3.1270     0.0000     1.6750 ca         1 JA2      -0.069000
      5 C5           4.0640    -0.0000     0.6820 ca         1 JA2      -0.139000
      6 C6           3.6830     0.0000    -0.6520 ca         1 JA2      -0.101000
      7 C7           2.3470     0.0010    -0.9970 ca         1 JA2      -0.130000
      8 C8          -0.4040    -0.0000     1.2990 cc         1 JA2       0.399800
      9 N9           0.6280    -0.0010     2.0890 nd         1 JA2      -0.603100
     10 C10         -1.8410    -0.0000     1.7560 c3         1 JA2      -0.071700
     11 C11         -2.0760    -1.1830     2.6980 c3         1 JA2      -0.074400
     12 C12         -3.5340    -1.1830     3.1610 c3         1 JA2      -0.078400
     13 C13         -3.7700    -2.3640     4.1040 c3         1 JA2      -0.110400
     14 C14         -5.2280    -2.3640     4.5680 c3         1 JA2       0.089800
     15 N15         -5.4540    -3.4990     5.4720 nz         1 JA2      -0.810600
     16 HN1         -0.5930     0.0000    -0.8060 hn         1 JA2       0.303700
     17 H4           3.4370     0.0000     2.7130 ha         1 JA2       0.143000
     18 H5           5.1170    -0.0010     0.9380 ha         1 JA2       0.141000
     19 H6           4.4390    -0.0000    -1.4280 ha         1 JA2       0.141000
     20 H7           2.0540     0.0010    -2.0400 ha         1 JA2       0.132000
     21 H10         -2.0540     0.9250     2.2770 hc         1 JA2       0.060700
     22 H10A        -2.4930    -0.0890     0.8950 hc         1 JA2       0.060700
     23 H11         -1.8630    -2.1080     2.1770 hc         1 JA2       0.065700
     24 H11A        -1.4240    -1.0940     3.5580 hc         1 JA2       0.065700
     25 H12         -3.7470    -0.2570     3.6820 hc         1 JA2       0.056700
     26 H12A        -4.1860    -1.2720     2.3010 hc         1 JA2       0.056700
     27 H13         -3.1180    -2.2750     4.9650 hc         1 JA2       0.068200
     28 H13A        -3.5570    -3.2900     3.5840 hc         1 JA2       0.068200
     29 H14         -5.8800    -2.4530     3.7070 hx         1 JA2       0.112700
     30 H14A        -5.4420    -1.4390     5.0890 hx         1 JA2       0.112700
     31 HN15        -6.4080    -3.4990     5.7760 hn         1 JA2       0.457800
     32 HN1A        -5.2570    -4.3540     4.9910 hn         1 JA2       0.457800
     33 H153        -4.8510    -3.4180     6.2670 hn         1 JA2       0.457800
@<TRIPOS>BOND
     1     1     2 1
     2     1     8 1
     3     2     3 ar
     4     2     7 ar
     5     3     4 ar
     6     3     9 1
     7     4     5 ar
     8     5     6 ar
     9     6     7 ar
    10     8     9 2
    11     8    10 1
    12    10    11 1
    13    11    12 1
    14    12    13 1
    15    13    14 1
    16    14    15 1
    17     1    16 1
    18     4    17 1
    19     5    18 1
    20     6    19 1
    21     7    20 1
    22    10    21 1
    23    10    22 1
    24    11    23 1
    25    11    24 1
    26    12    25 1
    27    12    26 1
    28    13    27 1
    29    13    28 1
    30    14    29 1
    31    14    30 1
    32    15    31 1
    33    15    32 1
    34    33    15 1
@<TRIPOS>SUBSTRUCTURE
     1 JA2         1 TEMP              0 ****  ****    0 ROOT
