@<TRIPOS>MOLECULE
JA2
   33    34     1     0     0
SMALL
bcc


@<TRIPOS>ATOM
      1 N1           0.0000     0.0000     0.0000 na         1 JA2       0.275700
      2 C2           1.3810     0.0000     0.0000 ca         1 JA2      -0.271200
      3 C3           1.7680     0.0000     1.3500 ca         1 JA2       0.060400
      4 C4           3.1270     0.0000     1.6750 ca         1 JA2      -0.039000
      5 C5           4.0640    -0.0000     0.6820 ca         1 JA2      -0.110000
      6 C6           3.6830     0.0000    -0.6520 ca         1 JA2      -0.076000
      7 C7           2.3470     0.0010    -0.9970 ca         1 JA2      -0.088000
      8 C8          -0.4040    -0.0000     1.2990 cc         1 JA2       0.176800
      9 N9           0.6280    -0.0010     2.0890 nd         1 JA2      -0.517100
     10 C10         -1.8410    -0.0000     1.7560 c3         1 JA2       0.000300
     11 C11         -2.0760    -1.1830     2.6980 c3         1 JA2      -0.024400
     12 C12         -3.5340    -1.1830     3.1610 c3         1 JA2      -0.019400
     13 C13         -3.7700    -2.3640     4.1040 c3         1 JA2      -0.035400
     14 C14         -5.2280    -2.3640     4.5680 c3         1 JA2      -0.055200
     15 N15         -5.4540    -3.4990     5.4720 nz         1 JA2       0.086400
     16 HN1         -0.5930     0.0000    -0.8060 hn         1 JA2       0.126700
     17 H4           3.4370     0.0000     2.7130 ha         1 JA2       0.111000
     18 H5           5.1170    -0.0010     0.9380 ha         1 JA2       0.110000
     19 H6           4.4390    -0.0000    -1.4280 ha         1 JA2       0.109000
     20 H7           2.0540     0.0010    -2.0400 ha         1 JA2       0.104000
     21 H10         -2.0540     0.9250     2.2770 hc         1 JA2       0.020700
     22 H10A        -2.4930    -0.0890     0.8950 hc         1 JA2       0.020700
     23 H11         -1.8630    -2.1080     2.1770 hc         1 JA2       0.033200
     24 H11A        -1.4240    -1.0940     3.5580 hc         1 JA2       0.033200
     25 H12         -3.7470    -0.2570     3.6820 hc         1 JA2       0.026200
     26 H12A        -4.1860    -1.2720     2.3010 hc         1 JA2       0.026200
     27 H13         -3.1180    -2.2750     4.9650 hc         1 JA2       0.035700
     28 H13A        -3.5570    -3.2900     3.5840 hc         1 JA2       0.035700
     29 H14         -5.8800    -2.4530     3.7070 hx         1 JA2       0.085700
     30 H14A        -5.4420    -1.4390     5.0890 hx         1 JA2       0.085700
     31 HN15        -6.4080    -3.4990     5.7760 hn         1 JA2       0.223467
     32 HN1A        -5.2570    -4.3540     4.9910 hn         1 JA2       0.223467
     33 H153        -4.8510    -3.4180     6.2670 hn         1 JA2       0.223467
@<TRIPOS>BOND
     1     1     2 1   
     2     1     8 1   
     3     1    16 1   
     4     2     3 ar  
     5     2     7 ar  
     6     3     4 ar  
     7     3     9 1   
     8     4     5 ar  
     9     4    17 1   
    10     5     6 ar  
    11     5    18 1   
    12     6     7 ar  
    13     6    19 1   
    14     7    20 1   
    15     8     9 2   
    16     8    10 1   
    17    10    11 1   
    18    10    21 1   
    19    10    22 1   
    20    11    12 1   
    21    11    23 1   
    22    11    24 1   
    23    12    13 1   
    24    12    25 1   
    25    12    26 1   
    26    13    14 1   
    27    13    27 1   
    28    13    28 1   
    29    14    15 1   
    30    14    29 1   
    31    14    30 1   
    32    15    31 1   
    33    15    32 1   
    34    15    33 1   
@<TRIPOS>SUBSTRUCTURE
     1 JA2         1 TEMP              0 ****  ****    0 ROOT
