@<TRIPOS>MOLECULE
molecule
   29    30     1     0     0
SMALL
bcc


@<TRIPOS>ATOM
      1 F1           0.0000     0.0000     0.0000 f          1 JA3      -0.133900
      2 C8           1.3510     0.0000     0.0000 ca         1 JA3       0.161900
      3 C9           2.0420     0.0000     1.2000 ca         1 JA3      -0.132300
      4 C10          1.2860    -0.0000     2.5040 c3         1 JA3      -0.033100
      5 C11          0.8130     1.4210     2.8190 c3         1 JA3      -0.090100
      6 C12          3.4250    -0.0010     1.2040 ca         1 JA3      -0.111000
      7 C            4.1220    -0.0010     0.0080 ca         1 JA3       0.078100
      8 O            5.4820    -0.0020     0.0110 oh         1 JA3      -0.501100
      9 C7           2.0430    -0.0050    -1.1990 ca         1 JA3      -0.234000
     10 C1           3.4290    -0.0000    -1.1990 ca         1 JA3       0.135100
     11 O1           4.1100     0.0010    -2.3770 os         1 JA3      -0.215200
     12 C2           3.3950    -0.1100    -3.5270 ca         1 JA3      -0.057200
     13 C6           2.8620     1.0200    -4.1380 ca         1 JA3       0.635500
     14 F            3.0570     2.2360    -3.5820 f          1 JA3      -0.205200
     15 N            2.1680     0.9160    -5.2550 nb         1 JA3      -0.715000
     16 C5           1.9530    -0.2510    -5.8330 ca         1 JA3       0.455200
     17 C4           2.4510    -1.4160    -5.2850 ca         1 JA3      -0.264300
     18 C3           3.1910    -1.3530    -4.1130 ca         1 JA3      -0.074000
     19 H7           1.5010    -0.0040    -2.1370 ha         1 JA3       0.156000
     20 H101         0.4280    -0.6570     2.4240 hc         1 JA3       0.053200
     21 H102         1.9350    -0.3490     3.2980 hc         1 JA3       0.053200
     22 H12          3.9630    -0.0010     2.1440 ha         1 JA3       0.152000
     23 H111         1.5900     2.1270     2.5510 hc         1 JA3       0.039033
     24 H112        -0.0840     1.6370     2.2510 hc         1 JA3       0.039033
     25 H113         0.5990     1.5040     3.8770 hc         1 JA3       0.039033
     26 H            5.7960     0.8380     0.3020 ho         1 JA3       0.419000
     27 H3           3.5930    -2.2520    -3.6620 ha         1 JA3       0.162000
     28 H5           1.3770    -0.2950    -6.7490 h4         1 JA3       0.036100
     29 H4           2.2700    -2.3690    -5.7680 ha         1 JA3       0.151000
@<TRIPOS>BOND
     1     1     2 1
     2     2     3 ar
     3     2     9 ar
     4     3     4 1
     5     3     6 ar
     6     4     5 1
     7     6     7 ar
     8     7     8 1
     9     7    10 ar
    10     9    10 ar
    11    10    11 1
    12    11    12 1
    13    12    13 ar
    14    12    18 ar
    15    13    14 1
    16    13    15 ar
    17    15    16 ar
    18    16    17 ar
    19    17    18 ar
    20     9    19 1
    21     4    20 1
    22     4    21 1
    23     6    22 1
    24     5    23 1
    25     5    24 1
    26     5    25 1
    27     8    26 1
    28    18    27 1
    29    16    28 1
    30    17    29 1
@<TRIPOS>SUBSTRUCTURE
     1 JA3         1 TEMP              0 ****  ****    0 ROOT
