@<TRIPOS>MOLECULE
JA3
   29    30     1     0     0
SMALL
bcc


@<TRIPOS>ATOM
      1 F1         -0.3980    0.1200    0.1860 f         1 JA3     -0.135900
      2 C8          0.9500    0.2070    0.0690 ca        1 JA3      0.101900
      3 C9          1.7840   -0.0100    1.1920 ca        1 JA3     -0.072300
      4 C10         1.2080   -0.3400    2.5250 c3        1 JA3     -0.042100
      5 C11         1.3630    0.7970    3.5070 c3        1 JA3     -0.090100
      6 C12         3.1670    0.0820    1.0420 ca        1 JA3     -0.132000
      7 C           3.7300    0.3820   -0.2080 ca        1 JA3      0.127100
      8 O           5.0960    0.4630   -0.2800 oh        1 JA3     -0.486100
      9 C7          1.5010    0.5130   -1.1870 ca        1 JA3     -0.149000
     10 C1          2.8860    0.5950   -1.3160 ca        1 JA3      0.015100
     11 O1          3.5050    1.0080   -2.4970 os        1 JA3     -0.236200
     12 C2          3.2020    0.2720   -3.6330 ca        1 JA3     -0.036200
     13 C6          3.4680    0.9250   -4.8780 ca        1 JA3      0.603500
     14 F           3.9360    2.1940   -4.8840 f         1 JA3     -0.204200
     15 N           3.2780    0.3070   -6.0760 nb        1 JA3     -0.665000
     16 C5          2.8170   -0.9550   -6.0490 ca        1 JA3      0.399200
     17 C4          2.5280   -1.6670   -4.8710 ca        1 JA3     -0.232300
     18 C3          2.7250   -1.0410   -3.6420 ca        1 JA3     -0.121000
     19 H7          0.8470    0.6880   -2.0540 ha        1 JA3      0.165000
     20 H101        1.7270   -1.2530    2.9270 hc        1 JA3      0.058700
     21 H102        0.1190   -0.5950    2.4180 hc        1 JA3      0.058700
     22 H12         3.8330   -0.0790    1.9030 ha        1 JA3      0.163000
     23 H111        0.8150    1.7030    3.1510 hc        1 JA3      0.040367
     24 H112        2.4400    1.0650    3.6340 hc        1 JA3      0.040367
     25 H113        0.9500    0.5000    4.5010 hc        1 JA3      0.040367
     26 H           5.3350    0.7120   -1.1880 ho        1 JA3      0.440000
     27 H3          2.5080   -1.5570   -2.6950 ha        1 JA3      0.161000
     28 H5          2.6710   -1.4180   -7.0430 h4        1 JA3      0.035100
     29 H4          2.1550   -2.6990   -4.9230 ha        1 JA3      0.154000
@<TRIPOS>BOND
     1    1    2 1   
     2    2    3 ar  
     3    2    9 ar  
     4    3    4 1   
     5    3    6 ar  
     6    4    5 1   
     7    4   20 1   
     8    4   21 1   
     9    5   23 1   
    10    5   24 1   
    11    5   25 1   
    12    6    7 ar  
    13    6   22 1   
    14    7    8 1   
    15    7   10 ar  
    16    8   26 1   
    17    9   10 ar  
    18    9   19 1   
    19   10   11 1   
    20   11   12 1   
    21   12   13 ar  
    22   12   18 ar  
    23   13   14 1   
    24   13   15 ar  
    25   15   16 ar  
    26   16   17 ar  
    27   16   28 1   
    28   17   18 ar  
    29   17   29 1   
    30   18   27 1   
@<TRIPOS>SUBSTRUCTURE
     1 JA3         1 TEMP              0 ****  ****    0 ROOT
