@<TRIPOS>MOLECULE
molecule
   59    62     1     0     0
SMALL
bcc


@<TRIPOS>ATOM
      1 C10          0.0000     0.0000     0.0000 cc         1 JA4      -0.259200
      2 C13          3.3350     0.0010     3.7380 ca         1 JA4       0.165400
      3 C20          4.7850    -3.3340     3.1810 ca         1 JA4      -0.130300
      4 C21          4.0030    -4.1560     2.3830 ca         1 JA4       0.152100
      5 C24          2.8540    -4.7350     2.9030 ca         1 JA4      -0.225000
      6 C26          3.2730    -3.6730     5.0080 ca         1 JA4      -0.177000
      7 C02          7.1970    -3.6340     2.8010 c          1 JA4       0.682100
      8 C03          6.0300    -2.6990     2.6180 c3         1 JA4       0.223800
      9 N04          6.2970    -1.4410     3.3200 n7         1 JA4      -0.884100
     10 S05          5.8370    -0.0010     2.6420 sy         1 JA4       1.415200
     11 C06          4.0770    -0.0000     2.5630 ca         1 JA4      -0.335500
     12 C07          3.4540     0.0000     1.3480 ca         1 JA4       0.052000
     13 C08          2.0560     0.0000     1.2860 ca         1 JA4      -0.163800
     14 C09          1.3560     0.0000     0.0000 cd         1 JA4      -0.016200
     15 C11          1.3000     0.0010     2.4730 ca         1 JA4       0.132600
     16 C12          1.9560     0.0010     3.7000 ca         1 JA4      -0.204000
     17 Cl1          4.1520     0.0020     5.2700 cl         1 JA4      -0.076400
     18 N15         -0.0770     0.0010     2.4050 ns         1 JA4      -0.427100
     19 C16         -0.7110     0.0000     1.2190 c          1 JA4       0.699700
     20 O17         -1.9290     0.0010     1.1970 o          1 JA4      -0.655500
     21 O18          6.1980     1.0120     3.5700 o          1 JA4      -0.611300
     22 O19          6.2980    -0.0250     1.2990 o          1 JA4      -0.611300
     23 O22          4.3610    -4.3930     1.0940 os         1 JA4      -0.310900
     24 C23          3.4520    -5.1570     0.2980 c3         1 JA4       0.128700
     25 C25          2.4920    -4.4920     4.2140 ca         1 JA4      -0.096000
     26 C27          4.4190    -3.0950     4.4910 ca         1 JA4      -0.067000
     27 C29          7.1690    -4.0530     0.4010 c3         1 JA4      -0.031000
     28 C30          7.9890    -2.9720    -0.2550 c          1 JA4       0.870600
     29 O31          7.6310    -2.4950    -1.4580 o          1 JA4      -0.832300
     30 O32          8.9670    -2.5340     0.3010 o          1 JA4      -0.832300
     31 C33          8.7460    -5.3080     1.9420 c3         1 JA4       0.190300
     32 C34          8.1230    -6.6560     2.1980 cc         1 JA4      -0.019400
     33 C35          7.8120    -7.5500     1.2580 cd         1 JA4      -0.170000
     34 C36          7.2480    -8.7220     1.7310 cd         1 JA4      -0.159000
     35 C37          7.1020    -8.7800     3.0550 cc         1 JA4      -0.105100
     36 S38          7.7030    -7.2960     3.7820 ss         1 JA4      -0.145800
     37 H101        -0.5400    -0.0000    -0.9390 ha         1 JA4       0.163000
     38 H241         2.2410    -5.3770     2.2820 ha         1 JA4       0.130000
     39 H261         2.9880    -3.4840     6.0360 ha         1 JA4       0.123000
     40 H031         5.8890    -2.5000     1.5630 h1         1 JA4       0.121700
     41 H041         6.8000    -1.4480     4.1850 hn         1 JA4       0.468800
     42 H071         4.0390    -0.0000     0.4360 ha         1 JA4       0.185000
     43 H091         1.9100    -0.0000    -0.9310 ha         1 JA4       0.154000
     44 H121         1.3860     0.0020     4.6210 ha         1 JA4       0.146000
     45 H151        -0.6120     0.0010     3.2510 hn         1 JA4       0.337500
     46 H232         3.3770    -6.1610     0.6980 h1         1 JA4       0.040367
     47 H233         3.8150    -5.2010    -0.7220 h1         1 JA4       0.040367
     48 H231         2.4760    -4.6880     0.3130 h1         1 JA4       0.040367
     49 H251         1.5950    -4.9440     4.6200 ha         1 JA4       0.119000
     50 H271         5.0290    -2.4540     5.1150 ha         1 JA4       0.147000
     51 H292         6.1370    -3.7320     0.4690 h1         1 JA4       0.052700
     52 H291         7.2280    -4.9590    -0.1890 h1         1 JA4       0.052700
     53 H332         9.3650    -5.3590     1.0550 h1         1 JA4       0.078200
     54 H331         9.3560    -5.0250     2.7920 h1         1 JA4       0.078200
     55 H351         7.9870    -7.3710     0.2040 ha         1 JA4       0.151000
     56 H361         6.9460    -9.5300     1.0750 ha         1 JA4       0.132000
     57 H371         6.6810    -9.6160     3.6010 h4         1 JA4       0.154000
     58 O01          7.6950    -3.7750     3.8980 o          1 JA4      -0.652100
     59 N28          7.6900    -4.3110     1.7460 n          1 JA4      -0.428800
@<TRIPOS>BOND
     1     1    14 2
     2     1    19 1
     3    14    13 1
     4    20    19 2
     5    35    34 2
     6    35    36 1
     7    19    18 1
     8    34    33 1
     9    13    12 ar
    10    13    15 ar
    11    12    11 ar
    12    21    10 2
    13    18    15 1
    14    15    16 ar
    15    36    32 1
    16    11    10 1
    17    11     2 ar
    18    22    10 2
    19    33    32 2
    20    10     9 1
    21    16     2 ar
    22     2    17 1
    23    32    31 1
    24    24    23 1
    25    23     4 1
    26     9     8 1
    27     8     7 1
    28     8     3 1
    29    31    59 1
    30     7    59 1
    31     7    58 2
    32     4     3 ar
    33     4     5 ar
    34    59    27 1
    35     3    26 ar
    36    27    28 1
    37     5    25 ar
    38    26     6 ar
    39    28    30 1
    40    28    29 1
    41    25     6 ar
    42     1    37 1
    43     5    38 1
    44     6    39 1
    45     8    40 1
    46     9    41 1
    47    12    42 1
    48    14    43 1
    49    16    44 1
    50    18    45 1
    51    24    46 1
    52    24    47 1
    53    24    48 1
    54    25    49 1
    55    26    50 1
    56    27    51 1
    57    27    52 1
    58    31    53 1
    59    31    54 1
    60    33    55 1
    61    34    56 1
    62    35    57 1
@<TRIPOS>SUBSTRUCTURE
     1 JA4         1 TEMP              0 ****  ****    0 ROOT
