@<TRIPOS>MOLECULE
molecule
   70    73     1     0     0
SMALL
bcc


@<TRIPOS>ATOM
      1 C10          0.0000     0.0000     0.0000 ca         1 JA7      -0.351500
      2 N12         -1.1160    -1.5830    -1.9540 n7         1 JA7      -0.883100
      3 C13         -1.9680    -2.4410    -1.1280 c3         1 JA7       0.240800
      4 C15         -0.9280    -4.4570    -2.1960 ca         1 JA7       0.173100
      5 C17         -0.4660    -4.5020    -4.5280 c3         1 JA7       0.132400
      6 C20         -0.1980    -3.4690    -8.2270 c3         1 JA7      -0.181400
      7 C21          0.3000    -4.2150    -9.4390 c          1 JA7       0.892600
      8 C24         -0.3710    -5.7260    -2.1150 ca         1 JA7      -0.226000
      9 C26         -0.6850    -5.7100     0.2580 ca         1 JA7      -0.183000
     10 C28         -3.3400    -2.5310    -1.7450 c          1 JA7       0.667100
     11 O01          2.0530    -0.0060     5.8070 o          1 JA7      -0.677500
     12 C02          1.4220    -0.0060     4.7650 c          1 JA7       0.701700
     13 N03          2.0840    -0.0000     3.5950 ns         1 JA7      -0.431100
     14 C04          0.0110    -0.0110     4.8160 cc         1 JA7      -0.281200
     15 C05         -0.7140    -0.0120     3.6700 cd         1 JA7       0.007800
     16 C06         -0.0010    -0.0050     2.3920 ca         1 JA7      -0.161800
     17 C07          1.4060     0.0010     2.3950 ca         1 JA7       0.118600
     18 C08          2.0920     0.0000     1.1850 ca         1 JA7      -0.221000
     19 C09          1.3890     0.0000     0.0000 ca         1 JA7       0.016000
     20 S11         -0.8730    -0.0010    -1.5290 sy         1 JA7       1.412200
     21 C14         -1.3630    -3.8190    -1.0440 ca         1 JA7      -0.130300
     22 O16         -1.0430    -3.8400    -3.4010 os         1 JA7      -0.313900
     23 C18         -0.5840    -3.6070    -5.7630 c3         1 JA7      -0.090400
     24 C19         -0.0780    -4.3650    -6.9920 c3         1 JA7      -0.061400
     25 O22          0.7090    -5.3450    -9.3250 o          1 JA7      -0.862300
     26 O23          0.2900    -3.6220   -10.6430 o          1 JA7      -0.862300
     27 C25         -0.2510    -6.3490    -0.8890 ca         1 JA7      -0.095000
     28 C27         -1.2400    -4.4470     0.1800 ca         1 JA7      -0.081000
     29 N29         -4.4100    -2.8080    -0.9730 n          1 JA7      -0.445800
     30 C30         -4.2560    -2.9130     0.4790 c3         1 JA7      -0.022000
     31 C31         -4.5830    -1.5880     1.1170 c          1 JA7       0.856600
     32 O32         -4.5100    -1.4480     2.4500 o          1 JA7      -0.834800
     33 O33         -4.9100    -0.6500     0.4280 o          1 JA7      -0.834800
     34 C34         -5.7250    -3.0030    -1.5870 c3         1 JA7       0.193300
     35 C35         -5.9100    -4.4600    -1.9270 cc         1 JA7      -0.025400
     36 C36         -6.4370    -5.3770    -1.1160 cd         1 JA7      -0.176000
     37 C37         -6.5070    -6.6540    -1.6460 cd         1 JA7      -0.164000
     38 C38         -6.0350    -6.7730    -2.8880 cc         1 JA7      -0.109100
     39 S39         -5.4690    -5.2080    -3.4570 ss         1 JA7      -0.113800
     40 O40         -3.4820    -2.3550    -2.9370 o          1 JA7      -0.608100
     41 O41         -2.1580     0.5440    -1.2590 o          1 JA7      -0.622800
     42 O42          0.0130     0.5440    -2.4980 o          1 JA7      -0.622800
     43 C43         -0.6940    -0.0060     1.1760 ca         1 JA7       0.048000
     44 H121        -0.6990    -1.9460    -2.7880 hn         1 JA7       0.479800
     45 H131        -2.0470    -2.0200    -0.1320 h1         1 JA7       0.084700
     46 H171        -0.9880    -5.4340    -4.7060 h1         1 JA7       0.030200
     47 H172         0.5800    -4.7070    -4.3290 h1         1 JA7       0.030200
     48 H201         0.3970    -2.5750    -8.0840 hc         1 JA7       0.033200
     49 H202        -1.2350    -3.1930    -8.3750 hc         1 JA7       0.033200
     50 H241        -0.0310    -6.2270    -3.0130 ha         1 JA7       0.140000
     51 H261        -0.5900    -6.2000     1.2200 ha         1 JA7       0.120000
     52 H031         3.0850     0.0040     3.5960 hn         1 JA7       0.328500
     53 H041        -0.4940    -0.0150     5.7740 ha         1 JA7       0.161000
     54 H051        -1.7750     0.2090     3.7000 ha         1 JA7       0.180000
     55 H081         3.1760    -0.0000     1.1750 ha         1 JA7       0.128000
     56 H091         1.9250     0.0010    -0.9410 ha         1 JA7       0.152000
     57 H182         0.0100    -2.7130    -5.6190 hc         1 JA7       0.052700
     58 H181        -1.6210    -3.3310    -5.9100 hc         1 JA7       0.052700
     59 H191        -0.6730    -5.2590    -7.1360 hc         1 JA7       0.042200
     60 H192         0.9590    -4.6400    -6.8450 hc         1 JA7       0.042200
     61 H251         0.1830    -7.3390    -0.8260 ha         1 JA7       0.116000
     62 H271        -1.5790    -3.9480     1.0810 ha         1 JA7       0.146000
     63 H302        -3.2350    -3.1850     0.7160 h1         1 JA7       0.041700
     64 H301        -4.9290    -3.6720     0.8600 h1         1 JA7       0.041700
     65 H341        -5.7930    -2.4100    -2.4910 h1         1 JA7       0.076700
     66 H342        -6.4970    -2.6930    -0.8930 h1         1 JA7       0.076700
     67 H361        -6.7860    -5.1420    -0.1170 ha         1 JA7       0.146000
     68 H371        -6.9110    -7.4930    -1.0940 ha         1 JA7       0.126000
     69 H381        -6.0090    -7.6930    -3.4610 h4         1 JA7       0.154000
     70 H431        -1.7780    -0.0060     1.1680 ha         1 JA7       0.200000
@<TRIPOS>BOND
     1    11    12 2
     2    12    14 1
     3    12    13 1
     4    14    15 2
     5    13    17 1
     6    15    16 1
     7    17    16 ar
     8    17    18 ar
     9    16    43 ar
    10    18    19 ar
    11    43     1 ar
    12    38    37 2
    13    38    39 1
    14    25     7 1
    15    19     1 ar
    16     1    20 1
    17    37    36 1
    18    39    35 1
    19    41    20 2
    20     7    26 1
    21     7     6 1
    22    42    20 2
    23    20     2 1
    24    36    35 2
    25    35    34 1
    26     6    24 1
    27    30    29 1
    28    30    31 1
    29     2     3 1
    30    40    10 2
    31    29    10 1
    32    29    34 1
    33    10     3 1
    34    24    23 1
    35    33    31 1
    36     3    21 1
    37    31    32 1
    38    23     5 1
    39    22     5 1
    40    22     4 1
    41    21     4 ar
    42    21    28 ar
    43     4     8 ar
    44    28     9 ar
    45     8    27 ar
    46     9    27 ar
    47     2    44 1
    48     3    45 1
    49     5    46 1
    50     5    47 1
    51     6    48 1
    52     6    49 1
    53     8    50 1
    54     9    51 1
    55    13    52 1
    56    14    53 1
    57    15    54 1
    58    18    55 1
    59    19    56 1
    60    23    57 1
    61    23    58 1
    62    24    59 1
    63    24    60 1
    64    27    61 1
    65    28    62 1
    66    30    63 1
    67    30    64 1
    68    34    65 1
    69    34    66 1
    70    36    67 1
    71    37    68 1
    72    38    69 1
    73    43    70 1
@<TRIPOS>SUBSTRUCTURE
     1 JA7         1 TEMP              0 ****  ****    0 ROOT
