@<TRIPOS>MOLECULE
JA7
   70    73     1     0     0
SMALL
bcc


@<TRIPOS>ATOM
      1 C10          0.0000     0.0000     0.0000 ca         1 JA7      -0.198500
      2 N12         -1.1160    -1.5830    -1.9540 n7         1 JA7      -0.551100
      3 C13         -1.9680    -2.4410    -1.1280 c3         1 JA7       0.196800
      4 C15         -0.9280    -4.4570    -2.1960 ca         1 JA7       0.186100
      5 C17         -0.4660    -4.5020    -4.5280 c3         1 JA7       0.195400
      6 C20         -0.1980    -3.4690    -8.2270 c3         1 JA7      -0.132400
      7 C21          0.3000    -4.2150    -9.4390 c          1 JA7       0.983600
      8 C24         -0.3710    -5.7260    -2.1150 ca         1 JA7      -0.218000
      9 C26         -0.6850    -5.7100     0.2580 ca         1 JA7      -0.164000
     10 C28         -3.3400    -2.5310    -1.7450 c          1 JA7       0.582100
     11 O01          2.0530    -0.0060     5.8070 o          1 JA7      -0.724500
     12 C02          1.4220    -0.0060     4.7650 c          1 JA7       0.602700
     13 N03          2.0840    -0.0000     3.5950 ns         1 JA7       0.038900
     14 C04          0.0110    -0.0110     4.8160 cc         1 JA7      -0.265200
     15 C05         -0.7140    -0.0120     3.6700 cd         1 JA7       0.046800
     16 C06         -0.0010    -0.0050     2.3920 ca         1 JA7      -0.167800
     17 C07          1.4060     0.0010     2.3950 ca         1 JA7      -0.044400
     18 C08          2.0920     0.0000     1.1850 ca         1 JA7      -0.206000
     19 C09          1.3890     0.0000     0.0000 ca         1 JA7       0.051000
     20 S11         -0.8730    -0.0010    -1.5290 sy         1 JA7       1.022200
     21 C14         -1.3630    -3.8190    -1.0440 ca         1 JA7      -0.150300
     22 O16         -1.0430    -3.8400    -3.4010 os         1 JA7      -0.280900
     23 C18         -0.5840    -3.6070    -5.7630 c3         1 JA7      -0.046400
     24 C19         -0.0780    -4.3650    -6.9920 c3         1 JA7      -0.010400
     25 O22          0.7090    -5.3450    -9.3250 o          1 JA7      -0.912800
     26 O23          0.2900    -3.6220   -10.6430 o          1 JA7      -0.912800
     27 C25         -0.2510    -6.3490    -0.8890 ca         1 JA7      -0.065000
     28 C27         -1.2400    -4.4470     0.1800 ca         1 JA7      -0.059000
     29 N29         -4.4100    -2.8080    -0.9730 n          1 JA7      -0.085800
     30 C30         -4.2560    -2.9130     0.4790 c3         1 JA7      -0.104000
     31 C31         -4.5830    -1.5880     1.1170 c          1 JA7       0.946600
     32 O32         -4.5100    -1.4480     2.4500 o          1 JA7      -0.882300
     33 O33         -4.9100    -0.6500     0.4280 o          1 JA7      -0.882300
     34 C34         -5.7250    -3.0030    -1.5870 c3         1 JA7       0.140300
     35 C35         -5.9100    -4.4600    -1.9270 cc         1 JA7       0.028600
     36 C36         -6.4370    -5.3770    -1.1160 cd         1 JA7      -0.154000
     37 C37         -6.5070    -6.6540    -1.6460 cd         1 JA7      -0.134000
     38 C38         -6.0350    -6.7730    -2.8880 cc         1 JA7      -0.029100
     39 S39         -5.4690    -5.2080    -3.4570 ss         1 JA7      -0.242800
     40 O40         -3.4820    -2.3550    -2.9370 o          1 JA7      -0.649100
     41 O41         -2.1580     0.5440    -1.2590 o          1 JA7      -0.574800
     42 O42          0.0130     0.5440    -2.4980 o          1 JA7      -0.574800
     43 C43         -0.6940    -0.0060     1.1760 ca         1 JA7       0.084000
     44 H121        -0.6990    -1.9460    -2.7880 hn         1 JA7       0.379800
     45 H131        -2.0470    -2.0200    -0.1320 h1         1 JA7       0.059700
     46 H171        -0.9880    -5.4340    -4.7060 h1         1 JA7      -0.002800
     47 H172         0.5800    -4.7070    -4.3290 h1         1 JA7      -0.002800
     48 H201         0.3970    -2.5750    -8.0840 hc         1 JA7       0.008700
     49 H202        -1.2350    -3.1930    -8.3750 hc         1 JA7       0.008700
     50 H241        -0.0310    -6.2270    -3.0130 ha         1 JA7       0.126000
     51 H261        -0.5900    -6.2000     1.2200 ha         1 JA7       0.097000
     52 H031         3.0850     0.0040     3.5960 hn         1 JA7       0.166500
     53 H041        -0.4940    -0.0150     5.7740 ha         1 JA7       0.134000
     54 H051        -1.7750     0.2090     3.7000 ha         1 JA7       0.144000
     55 H081         3.1760    -0.0000     1.1750 ha         1 JA7       0.107000
     56 H091         1.9250     0.0010    -0.9410 ha         1 JA7       0.121000
     57 H182         0.0100    -2.7130    -5.6190 hc         1 JA7       0.024700
     58 H181        -1.6210    -3.3310    -5.9100 hc         1 JA7       0.024700
     59 H191        -0.6730    -5.2590    -7.1360 hc         1 JA7       0.016200
     60 H192         0.9590    -4.6400    -6.8450 hc         1 JA7       0.016200
     61 H251         0.1830    -7.3390    -0.8260 ha         1 JA7       0.089000
     62 H271        -1.5790    -3.9480     1.0810 ha         1 JA7       0.121000
     63 H302        -3.2350    -3.1850     0.7160 h1         1 JA7       0.025700
     64 H301        -4.9290    -3.6720     0.8600 h1         1 JA7       0.025700
     65 H341        -5.7930    -2.4100    -2.4910 h1         1 JA7       0.047700
     66 H342        -6.4970    -2.6930    -0.8930 h1         1 JA7       0.047700
     67 H361        -6.7860    -5.1420    -0.1170 ha         1 JA7       0.124000
     68 H371        -6.9110    -7.4930    -1.0940 ha         1 JA7       0.103000
     69 H381        -6.0090    -7.6930    -3.4610 h4         1 JA7       0.136000
     70 H431        -1.7780    -0.0060     1.1680 ha         1 JA7       0.169000
@<TRIPOS>BOND
     1     1    19 ar  
     2     1    20 1   
     3     1    43 ar  
     4     2     3 1   
     5     2    20 1   
     6     2    44 1   
     7     3    10 1   
     8     3    21 1   
     9     3    45 1   
    10     4     8 ar  
    11     4    21 ar  
    12     4    22 1   
    13     5    22 1   
    14     5    23 1   
    15     5    46 1   
    16     5    47 1   
    17     6     7 1   
    18     6    24 1   
    19     6    48 1   
    20     6    49 1   
    21     7    25 1   
    22     7    26 1   
    23     8    27 ar  
    24     8    50 1   
    25     9    27 ar  
    26     9    28 ar  
    27     9    51 1   
    28    10    29 1   
    29    10    40 2   
    30    11    12 2   
    31    12    13 1   
    32    12    14 1   
    33    13    17 1   
    34    13    52 1   
    35    14    15 2   
    36    14    53 1   
    37    15    16 1   
    38    15    54 1   
    39    16    17 ar  
    40    16    43 ar  
    41    17    18 ar  
    42    18    19 ar  
    43    18    55 1   
    44    19    56 1   
    45    20    41 2   
    46    20    42 2   
    47    21    28 ar  
    48    23    24 1   
    49    23    57 1   
    50    23    58 1   
    51    24    59 1   
    52    24    60 1   
    53    27    61 1   
    54    28    62 1   
    55    29    30 1   
    56    29    34 1   
    57    30    31 1   
    58    30    63 1   
    59    30    64 1   
    60    31    32 1   
    61    31    33 1   
    62    34    35 1   
    63    34    65 1   
    64    34    66 1   
    65    35    36 2   
    66    35    39 1   
    67    36    37 1   
    68    36    67 1   
    69    37    38 2   
    70    37    68 1   
    71    38    39 1   
    72    38    69 1   
    73    43    70 1   
@<TRIPOS>SUBSTRUCTURE
     1 JA7         1 TEMP              0 ****  ****    0 ROOT
