@<TRIPOS>MOLECULE
molecule
   44    47     1     0     0
SMALL
bcc


@<TRIPOS>ATOM
      1 C1           0.0000     0.0000     0.0000 c3         1 JAC       0.615600
      2 F1           1.3990     0.0000     0.0000 f          1 JAC      -0.213967
      3 N1           0.2370     0.0930     2.5000 nc         1 JAC      -0.455800
      4 O1          -4.1470    -0.6500     1.8080 os         1 JAC      -0.419600
      5 C2          -0.5020     0.0000     1.4210 cd         1 JAC       0.267600
      6 F2          -0.4660     1.1420    -0.6600 f          1 JAC      -0.213967
      7 N2          -0.6090     0.0570     3.6200 na         1 JAC       0.174300
      8 O2           0.8870    -2.4020     9.8790 o          1 JAC      -0.635500
      9 C3          -1.8700    -0.0590     3.1760 cc         1 JAC      -0.047600
     10 F3          -0.4650    -1.1430    -0.6600 f          1 JAC      -0.213967
     11 N3           2.1160    -0.5920     9.2810 n          1 JAC      -0.496800
     12 C4          -3.1560    -0.1390     3.9610 c3         1 JAC      -0.054100
     13 C5          -4.3140     0.1370     2.9900 c3         1 JAC       0.143400
     14 C6          -3.0680    -0.2290     0.9620 c3         1 JAC       0.217700
     15 C7          -1.8320    -0.0980     1.8160 cd         1 JAC      -0.317600
     16 C8          -0.2070     0.1290     4.9610 ca         1 JAC       0.020800
     17 C9          -0.8000    -0.6950     5.9090 ca         1 JAC      -0.127000
     18 C10         -0.4030    -0.6230     7.2300 ca         1 JAC      -0.100000
     19 C11          0.5830     0.2700     7.6090 ca         1 JAC      -0.112300
     20 C12          1.0140     0.3470     9.0510 c3         1 JAC       0.170300
     21 C13          3.5360    -0.2560     9.1280 c3         1 JAC       0.096000
     22 C14          4.2730    -1.6100     9.0400 c3         1 JAC      -0.097400
     23 C15          3.3020    -2.5470     9.7960 c3         1 JAC      -0.168400
     24 C16          1.9560    -1.8700     9.6670 c          1 JAC       0.705500
     25 C17          1.1750     1.0910     6.6660 ca         1 JAC      -0.100000
     26 C18          0.7860     1.0200     5.3430 ca         1 JAC      -0.127000
     27 H4          -3.1520     0.6070     4.7470 hc         1 JAC       0.069200
     28 H4A         -3.2640    -1.1290     4.3880 hc         1 JAC       0.069200
     29 H5          -5.2360    -0.1680     3.4700 h1         1 JAC       0.058700
     30 H5A         -4.2740     1.1820     2.7070 h1         1 JAC       0.058700
     31 H6          -2.8930    -1.0000     0.2210 h1         1 JAC       0.067700
     32 H6A         -3.3110     0.7470     0.5580 h1         1 JAC       0.067700
     33 H9          -1.5720    -1.3950     5.6120 ha         1 JAC       0.150500
     34 H10         -0.8640    -1.2660     7.9700 ha         1 JAC       0.147500
     35 H12          0.1800     0.0880     9.6910 h1         1 JAC       0.065700
     36 H12A         1.3440     1.3540     9.2760 h1         1 JAC       0.065700
     37 H13          3.8830     0.3030     9.9880 h1         1 JAC       0.046700
     38 H13A         3.6900     0.3120     8.2180 h1         1 JAC       0.046700
     39 H14          4.3840    -1.9230     8.0090 hc         1 JAC       0.061200
     40 H14A         5.2310    -1.5610     9.5440 hc         1 JAC       0.061200
     41 H15          3.5880    -2.6240    10.8380 hc         1 JAC       0.078200
     42 H15A         3.2800    -3.5240     9.3290 hc         1 JAC       0.078200
     43 H17          1.9490     1.7880     6.9660 ha         1 JAC       0.147500
     44 H18          1.2510     1.6640     4.6060 ha         1 JAC       0.150500
@<TRIPOS>BOND
     1     1     2 1
     2     1     5 1
     3     1     6 1
     4     1    10 1
     5     3     5 2
     6     3     7 1
     7     4    13 1
     8     4    14 1
     9     5    15 1
    10     7     9 1
    11     7    16 1
    12     8    24 2
    13     9    12 1
    14     9    15 2
    15    11    20 1
    16    11    21 1
    17    11    24 1
    18    12    13 1
    19    14    15 1
    20    16    17 ar
    21    16    26 ar
    22    17    18 ar
    23    18    19 ar
    24    19    20 1
    25    19    25 ar
    26    21    22 1
    27    22    23 1
    28    23    24 1
    29    25    26 ar
    30    12    27 1
    31    12    28 1
    32    13    29 1
    33    13    30 1
    34    14    31 1
    35    14    32 1
    36    17    33 1
    37    18    34 1
    38    20    35 1
    39    20    36 1
    40    21    37 1
    41    21    38 1
    42    22    39 1
    43    22    40 1
    44    23    41 1
    45    23    42 1
    46    25    43 1
    47    26    44 1
@<TRIPOS>SUBSTRUCTURE
     1 JAC         1 TEMP              0 ****  ****    0 ROOT
