@<TRIPOS>MOLECULE
molecule
   37    39     1     0     0
SMALL
bcc


@<TRIPOS>ATOM
      1 Cl1          0.0000     0.0000     0.0000 cl         1 JAD      -0.083400
      2 C3           1.7360     0.0000     0.0000 ca         1 JAD       0.054400
      3 C2           2.4370     0.0000     1.2130 ca         1 JAD      -0.006000
      4 C7           1.7220     0.0010     2.4530 cg         1 JAD       0.238800
      5 N1           1.1720     0.0070     3.4470 n1         1 JAD      -0.347800
      6 C4           2.4260    -0.0060    -1.1900 ca         1 JAD      -0.070300
      7 C8           1.6760    -0.0120    -2.4990 c3         1 JAD      -0.053800
      8 C5           3.8250    -0.0070    -1.1850 ca         1 JAD      -0.045900
      9 C6           4.5200    -0.0020     0.0290 ca         1 JAD      -0.101000
     10 C1           3.8350    -0.0010     1.2110 ca         1 JAD      -0.090000
     11 C9           4.5670    -0.0140    -2.4580 ce         1 JAD       0.279900
     12 C11          4.5720     1.1100    -3.4740 c3         1 JAD       0.078800
     13 O2           4.9270     2.3470    -2.8540 os         1 JAD      -0.403600
     14 C15          3.8070     3.1400    -2.4540 c3         1 JAD       0.125700
     15 C10          5.6510     0.6780    -4.4750 c3         1 JAD       0.154500
     16 C14          5.1280     0.6580    -5.9200 c3         1 JAD       0.141100
     17 O1           5.6050     1.7970    -6.6390 oh         1 JAD      -0.594800
     18 C13          5.7120    -0.6440    -6.5210 c3         1 JAD      -0.133400
     19 C12          6.4910    -1.3020    -5.3540 c3         1 JAD       0.313800
     20 N3           5.8550    -0.7550    -4.1370 nh         1 JAD      -0.590700
     21 N2           5.3190    -0.9780    -2.8790 n2         1 JAD      -0.282400
     22 H1           0.6990    -0.4570    -2.3530 hc         1 JAD       0.053700
     23 H2           2.2300    -0.5890    -3.2300 hc         1 JAD       0.053700
     24 H3           1.5610     1.0050    -2.8540 hc         1 JAD       0.053700
     25 H4           5.6030    -0.0020     0.0320 ha         1 JAD       0.156000
     26 H5           4.3770     0.0010     2.1490 ha         1 JAD       0.151000
     27 H7           3.6090     1.1840    -3.9630 h1         1 JAD       0.053700
     28 H8           4.0500     4.1900    -2.5640 h1         1 JAD       0.033700
     29 H9           2.9540     2.9000    -3.0780 h1         1 JAD       0.033700
     30 H10          3.5680     2.9300    -1.4190 h1         1 JAD       0.033700
     31 H11          6.5630     1.2540    -4.3730 h1         1 JAD       0.105700
     32 H12          4.0460     0.6240    -5.9290 h1         1 JAD       0.040700
     33 H13          4.9420     2.0880    -7.2440 ho         1 JAD       0.405000
     34 H14          4.9120    -1.2950    -6.8540 hc         1 JAD       0.064700
     35 H15          6.3840    -0.4120    -7.3380 hc         1 JAD       0.064700
     36 H16          6.3790    -2.3790    -5.3870 h1         1 JAD       0.057200
     37 H17          7.5360    -1.0220    -5.3930 h1         1 JAD       0.057200
@<TRIPOS>BOND
     1    18    16 1
     2    18    19 1
     3    16    17 1
     4    16    15 1
     5    19    20 1
     6     5     4 3
     7     4     3 1
     8    10     3 ar
     9    10     9 ar
    10     3     2 ar
    11     9     8 ar
    12    21    11 2
    13    21    20 1
    14     2     1 1
    15     2     6 ar
    16     8     6 ar
    17     8    11 1
    18     6     7 1
    19    11    12 1
    20    20    15 1
    21    15    12 1
    22    12    13 1
    23    13    14 1
    24     7    22 1
    25     7    23 1
    26     7    24 1
    27     9    25 1
    28    10    26 1
    29    12    27 1
    30    14    28 1
    31    14    29 1
    32    14    30 1
    33    15    31 1
    34    16    32 1
    35    17    33 1
    36    18    34 1
    37    18    35 1
    38    19    36 1
    39    19    37 1
@<TRIPOS>SUBSTRUCTURE
     1 JAD         1 TEMP              0 ****  ****    0 ROOT
