@<TRIPOS>MOLECULE
molecule
   38    39     1     0     0
SMALL
bcc


@<TRIPOS>ATOM
      1 CAB          0.0000     0.0000     0.0000 c3         1 JAF      -0.044300
      2 CAO          1.5060     0.0000     0.0000 ca         1 JAF      -0.054800
      3 CAK          2.1970     0.0000     1.1960 ca         1 JAF      -0.159500
      4 CAQ          3.5840     0.0000     1.1970 ca         1 JAF       0.118100
      5 OAF          4.2640    -0.0000     2.3750 oh         1 JAF      -0.522100
      6 CAL          4.2790     0.0020    -0.0040 ca         1 JAF      -0.159500
      7 CAP          3.5900     0.0030    -1.2020 ca         1 JAF      -0.054800
      8 CAC          4.3440    -0.0010    -2.5050 c3         1 JAF      -0.044300
      9 CAT          2.2010    -0.0030    -1.2020 ca         1 JAF       0.101600
     10 NAM          1.5030    -0.0020    -2.4140 nu         1 JAF      -0.775500
     11 SAU          0.6520     1.3400    -2.8800 sy         1 JAF       1.426200
     12 OAD          0.0680     1.0300    -4.1370 o          1 JAF      -0.638800
     13 OAE         -0.1080     1.7440    -1.7490 o          1 JAF      -0.638800
     14 CAS          1.8230     2.6230    -3.1750 ca         1 JAF      -0.352500
     15 CAI          2.4440     2.7190    -4.4070 ca         1 JAF       0.011000
     16 CAG          3.3630     3.7240    -4.6410 ca         1 JAF      -0.214500
     17 CAR          3.6620     4.6370    -3.6400 ca         1 JAF       0.193100
     18 OAN          4.5690     5.6230    -3.8670 os         1 JAF      -0.322900
     19 CAA          5.1730     5.6640    -5.1620 c3         1 JAF       0.126700
     20 CAH          3.0370     4.5380    -2.4060 ca         1 JAF      -0.214500
     21 CAJ          2.1150     3.5350    -2.1790 ca         1 JAF       0.011000
     22 H1          -0.3610    -0.6440     0.7930 hc         1 JAF       0.050533
     23 H2          -0.3610     1.0090     0.1610 hc         1 JAF       0.050533
     24 H3          -0.3610    -0.3650    -0.9540 hc         1 JAF       0.050533
     25 H4           1.6560     0.0140     2.1340 ha         1 JAF       0.145500
     26 H5           4.4130    -0.8890     2.6510 ho         1 JAF       0.421000
     27 H6           5.3630     0.0030    -0.0030 ha         1 JAF       0.145500
     28 H7           4.1530    -0.9280    -3.0300 hc         1 JAF       0.050533
     29 H8           5.4060     0.0900    -2.3080 hc         1 JAF       0.050533
     30 H9           4.0170     0.8330    -3.1140 hc         1 JAF       0.050533
     31 H10          1.4830    -0.8270    -2.9800 hn         1 JAF       0.461800
     32 H11          2.2110     2.0060    -5.1890 ha         1 JAF       0.153000
     33 H12          3.8500     3.7990    -5.6060 ha         1 JAF       0.146500
     34 H13          4.4030     5.7800    -5.9160 h1         1 JAF       0.045367
     35 H14          5.7140     4.7420    -5.3380 h1         1 JAF       0.045367
     36 H15          5.8590     6.5000    -5.2150 h1         1 JAF       0.045367
     37 H16          3.2660     5.2510    -1.6240 ha         1 JAF       0.146500
     38 H17          1.6260     3.4580    -1.2150 ha         1 JAF       0.153000
@<TRIPOS>BOND
     1    19    18 1
     2    18    17 1
     3    17    20 ar
     4    17    16 ar
     5    20    21 ar
     6    16    15 ar
     7    21    14 ar
     8    15    14 ar
     9    14    11 1
    10    12    11 2
    11    11    13 2
    12    11    10 1
    13     8     7 1
    14    10     9 1
    15     7     9 ar
    16     7     6 ar
    17     9     2 ar
    18     6     4 ar
    19     2     1 1
    20     2     3 ar
    21     4     3 ar
    22     4     5 1
    23     1    22 1
    24     1    23 1
    25     1    24 1
    26     3    25 1
    27     5    26 1
    28     6    27 1
    29     8    28 1
    30     8    29 1
    31     8    30 1
    32    10    31 1
    33    15    32 1
    34    16    33 1
    35    19    34 1
    36    19    35 1
    37    19    36 1
    38    20    37 1
    39    21    38 1
@<TRIPOS>SUBSTRUCTURE
     1 JAF         1 TEMP              0 ****  ****    0 ROOT
