@<TRIPOS>MOLECULE
JAF
   38    39     1     0     0
SMALL
bcc


@<TRIPOS>ATOM
      1 CAB          0.0000     0.0000     0.0000 c3         1 JAF       0.050700
      2 CAO          1.5060     0.0000     0.0000 ca         1 JAF      -0.056800
      3 CAK          2.1970     0.0000     1.1960 ca         1 JAF      -0.147000
      4 CAQ          3.5840     0.0000     1.1970 ca         1 JAF       0.134100
      5 OAF          4.2640    -0.0000     2.3750 oh         1 JAF      -0.502100
      6 CAL          4.2790     0.0020    -0.0040 ca         1 JAF      -0.147000
      7 CAP          3.5900     0.0030    -1.2020 ca         1 JAF      -0.056800
      8 CAC          4.3440    -0.0010    -2.5050 c3         1 JAF       0.050700
      9 CAT          2.2010    -0.0030    -1.2020 ca         1 JAF       0.016600
     10 NAM          1.5030    -0.0020    -2.4140 nu         1 JAF      -0.405500
     11 SAU          0.6520     1.3400    -2.8800 sy         1 JAF       1.038200
     12 OAD          0.0680     1.0300    -4.1370 o          1 JAF      -0.589300
     13 OAE         -0.1080     1.7440    -1.7490 o          1 JAF      -0.589300
     14 CAS          1.8230     2.6230    -3.1750 ca         1 JAF      -0.201500
     15 CAI          2.4440     2.7190    -4.4070 ca         1 JAF       0.049500
     16 CAG          3.3630     3.7240    -4.6410 ca         1 JAF      -0.210000
     17 CAR          3.6620     4.6370    -3.6400 ca         1 JAF       0.203100
     18 OAN          4.5690     5.6230    -3.8670 os         1 JAF      -0.304900
     19 CAA          5.1730     5.6640    -5.1620 c3         1 JAF       0.245700
     20 CAH          3.0370     4.5380    -2.4060 ca         1 JAF      -0.210000
     21 CAJ          2.1150     3.5350    -2.1790 ca         1 JAF       0.049500
     22 H1          -0.3610    -0.6440     0.7930 hc         1 JAF       0.017200
     23 H2          -0.3610     1.0090     0.1610 hc         1 JAF       0.017200
     24 H3          -0.3610    -0.3650    -0.9540 hc         1 JAF       0.017200
     25 H4           1.6560     0.0140     2.1340 ha         1 JAF       0.119000
     26 H5           4.4130    -0.8890     2.6510 ho         1 JAF       0.403000
     27 H6           5.3630     0.0030    -0.0030 ha         1 JAF       0.119000
     28 H7           4.1530    -0.9280    -3.0300 hc         1 JAF       0.017200
     29 H8           5.4060     0.0900    -2.3080 hc         1 JAF       0.017200
     30 H9           4.0170     0.8330    -3.1140 hc         1 JAF       0.017200
     31 H10          1.4830    -0.8270    -2.9800 hn         1 JAF       0.344800
     32 H11          2.2110     2.0060    -5.1890 ha         1 JAF       0.122000
     33 H12          3.8500     3.7990    -5.6060 ha         1 JAF       0.125000
     34 H13          4.4030     5.7800    -5.9160 h1         1 JAF      -0.000300
     35 H14          5.7140     4.7420    -5.3380 h1         1 JAF      -0.000300
     36 H15          5.8590     6.5000    -5.2150 h1         1 JAF      -0.000300
     37 H16          3.2660     5.2510    -1.6240 ha         1 JAF       0.125000
     38 H17          1.6260     3.4580    -1.2150 ha         1 JAF       0.122000
@<TRIPOS>BOND
     1     1     2 1   
     2     1    22 1   
     3     1    23 1   
     4     1    24 1   
     5     2     3 ar  
     6     2     9 ar  
     7     3     4 ar  
     8     3    25 1   
     9     4     5 1   
    10     4     6 ar  
    11     5    26 1   
    12     6     7 ar  
    13     6    27 1   
    14     7     8 1   
    15     7     9 ar  
    16     8    28 1   
    17     8    29 1   
    18     8    30 1   
    19     9    10 1   
    20    10    11 1   
    21    10    31 1   
    22    11    12 2   
    23    11    13 2   
    24    11    14 1   
    25    14    15 ar  
    26    14    21 ar  
    27    15    16 ar  
    28    15    32 1   
    29    16    17 ar  
    30    16    33 1   
    31    17    18 1   
    32    17    20 ar  
    33    18    19 1   
    34    19    34 1   
    35    19    35 1   
    36    19    36 1   
    37    20    21 ar  
    38    20    37 1   
    39    21    38 1   
@<TRIPOS>SUBSTRUCTURE
     1 JAF         1 TEMP              0 ****  ****    0 ROOT
