@<TRIPOS>MOLECULE
JAI
   51    51     1     0     0
SMALL
bcc


@<TRIPOS>ATOM
      1 C            0.0000     0.0000     0.0000 c          1 JAI       0.982600
      2 N            1.9960     1.1960    -0.6890 ns         1 JAI      -0.134900
      3 O1          -0.6040     0.9040    -0.5290 o          1 JAI      -0.887800
      4 O2          -0.6720    -1.0060     0.5800 o          1 JAI      -0.887800
      5 CA           1.5070     0.0000     0.0000 c3         1 JAI      -0.102300
      6 CB           2.0150     0.0000     1.4430 c3         1 JAI      -0.026700
      7 C01          8.6480     3.8860    -4.7680 c3         1 JAI       0.011900
      8 C02          7.1770     4.0610    -4.3890 c3         1 JAI      -0.004200
      9 C03          6.4490     4.7610    -5.5070 c2         1 JAI      -0.173200
     10 C04          5.3540     4.2400    -6.0040 c2         1 JAI      -0.163200
     11 C05          4.7280     3.0370    -5.3480 c3         1 JAI       0.013800
     12 C06          3.2590     3.3310    -5.0380 c3         1 JAI      -0.165700
     13 C07          2.4800     3.4890    -6.3270 c          1 JAI       0.635100
     14 C09          1.4110     2.4100    -6.3450 c3         1 JAI      -0.139400
     15 C10          1.1940     2.0580    -4.8530 c3         1 JAI      -0.018400
     16 C11          2.6320     2.1430    -4.2800 c3         1 JAI      -0.024700
     17 C13          2.1250     1.1940    -2.0320 c          1 JAI       0.567100
     18 O14          1.8370     0.2020    -2.6680 o          1 JAI      -0.668100
     19 CG1          1.6100    -1.3070     2.1270 c3         1 JAI      -0.063400
     20 CG2          1.4050     1.1820     2.1990 c3         1 JAI      -0.016100
     21 HN           2.2530     2.0070    -0.1630 hn         1 JAI       0.155500
     22 HA           1.8680    -0.8840    -0.5110 h1         1 JAI       0.056700
     23 HB           3.0950     0.0890     1.4450 hc         1 JAI      -0.007300
     24 H01          9.1160     4.8590    -4.8580 hc         1 JAI      -0.002633
     25 H01A         9.1530     3.3120    -4.0010 hc         1 JAI      -0.002633
     26 H01B         8.7180     3.3630    -5.7150 hc         1 JAI      -0.002633
     27 H02          7.1060     4.6540    -3.4850 hc         1 JAI       0.025200
     28 H02A         6.7300     3.0890    -4.2190 hc         1 JAI       0.025200
     29 H03          6.8970     5.6260    -5.9810 ha         1 JAI       0.098000
     30 H04          4.8340     4.7460    -6.8080 ha         1 JAI       0.130000
     31 H05          4.7930     2.1870    -6.0170 hc         1 JAI       0.030200
     32 H05A         5.2540     2.8130    -4.4280 hc         1 JAI       0.030200
     33 H06          3.1740     4.2330    -4.4440 hc         1 JAI       0.052700
     34 H09          0.4960     2.7940    -6.7790 hc         1 JAI       0.035200
     35 H09A         1.7620     1.5420    -6.8900 hc         1 JAI       0.035200
     36 H10          0.7990     1.0540    -4.7490 hc         1 JAI       0.044200
     37 H10A         0.5480     2.7850    -4.3770 hc         1 JAI       0.044200
     38 H11          3.1640     1.2270    -4.5070 hc         1 JAI       0.050700
     39 H12          1.9800     3.2670    -2.5300 hc         1 JAI       0.021700
     40 H12A         3.6360     2.6540    -2.4140 hc         1 JAI       0.021700
     41 HD1          1.6150    -0.7850     4.2120 hc         1 JAI      -0.013633
     42 HD1A         2.2670    -2.3920     3.8620 hc         1 JAI      -0.013633
     43 HD1B         3.2250    -0.9500     3.4990 hc         1 JAI      -0.013633
     44 HG1          1.9680    -2.1460     1.5430 hc         1 JAI       0.056700
     45 HG1A         0.5310    -1.3550     2.2040 hc         1 JAI       0.056700
     46 HG2          1.0640     1.9270     1.4900 hc         1 JAI       0.005700
     47 HG2A         0.5670     0.8380     2.7930 hc         1 JAI       0.005700
     48 HG2B         2.1530     1.6190     2.8500 hc         1 JAI       0.005700
     49 CD1          2.2240    -1.3620     3.5270 c3         1 JAI       0.000900
     50 C12          2.6290     2.4250    -2.7410 c3         1 JAI      -0.095400
     51 O3           2.6730     4.3190    -7.1830 o          1 JAI      -0.572100
@<TRIPOS>BOND
     1     1     3 1   
     2     1     4 1   
     3     1     5 1   
     4     2     5 1   
     5     2    17 1   
     6     2    21 1   
     7     5     6 1   
     8     5    22 1   
     9     6    19 1   
    10     6    20 1   
    11     6    23 1   
    12     7     8 1   
    13     7    24 1   
    14     7    25 1   
    15     7    26 1   
    16     8     9 1   
    17     8    27 1   
    18     8    28 1   
    19     9    10 2   
    20     9    29 1   
    21    10    11 1   
    22    10    30 1   
    23    11    12 1   
    24    11    31 1   
    25    11    32 1   
    26    12    13 1   
    27    12    16 1   
    28    12    33 1   
    29    13    14 1   
    30    13    51 2   
    31    14    15 1   
    32    14    34 1   
    33    14    35 1   
    34    15    16 1   
    35    15    36 1   
    36    15    37 1   
    37    16    38 1   
    38    16    50 1   
    39    17    18 2   
    40    17    50 1   
    41    19    44 1   
    42    19    45 1   
    43    19    49 1   
    44    20    46 1   
    45    20    47 1   
    46    20    48 1   
    47    39    50 1   
    48    40    50 1   
    49    41    49 1   
    50    42    49 1   
    51    43    49 1   
@<TRIPOS>SUBSTRUCTURE
     1 JAI         1 TEMP              0 ****  ****    0 ROOT
