@<TRIPOS>MOLECULE
molecule
   67    70     1     0     0
SMALL
bcc


@<TRIPOS>ATOM
      1 N12          0.0000     0.0000     0.0000 n7         1 JAJ      -0.879100
      2 C13          1.4650     0.0000     0.0000 c3         1 JAJ       0.239800
      3 C15          1.4390     0.8910     2.3430 ca         1 JAJ       0.174100
      4 C17         -0.1200     2.5620     2.9980 c3         1 JAJ       0.124400
      5 C24          2.8900    -0.0010     4.0300 ca         1 JAJ      -0.097000
      6 C26          2.9550    -0.8860     1.8050 ca         1 JAJ      -0.081000
      7 C02         -0.3840    -7.2960     0.8380 c          1 JAJ       0.699700
      8 N03          0.3850    -6.5880    -0.0060 ns         1 JAJ      -0.426100
      9 C04          0.1120    -5.2630    -0.2720 ca         1 JAJ       0.113600
     10 C05         -0.9880    -4.6410     0.3490 ca         1 JAJ      -0.180800
     11 C06         -1.8190    -5.4220     1.2670 cc         1 JAJ      -0.014200
     12 C07         -1.5010    -6.7220     1.4820 cd         1 JAJ      -0.271200
     13 C08         -1.2680    -3.2970     0.0840 ca         1 JAJ       0.028000
     14 C09         -0.4740    -2.5960    -0.7790 ca         1 JAJ      -0.319500
     15 S10         -0.8280    -0.9030    -1.1130 sy         1 JAJ       1.411200
     16 O11         -2.2090    -0.7190    -0.8320 o          1 JAJ      -0.618800
     17 C14          1.9670     0.0000     1.4200 ca         1 JAJ      -0.130300
     18 O16          0.4630     1.7600     1.9690 os         1 JAJ      -0.306900
     19 C18         -1.2730     3.3810     2.4130 c3         1 JAJ      -0.065400
     20 C19         -1.8170     4.3300     3.4830 c3         1 JAJ      -0.181400
     21 O21         -3.5870     6.0420     3.6700 o          1 JAJ      -0.853800
     22 O22         -3.2910     4.9710     1.7590 o          1 JAJ      -0.853800
     23 C23          1.9030     0.8870     3.6520 ca         1 JAJ      -0.229000
     24 C25          3.4170    -0.8870     3.1080 ca         1 JAJ      -0.187000
     25 C27          1.9670     1.2300    -0.7110 c          1 JAJ       0.667100
     26 N28          3.1860     1.2250    -1.2860 n          1 JAJ      -0.448800
     27 C29          3.9780    -0.0070    -1.3150 c3         1 JAJ      -0.021000
     28 C30          3.7470    -0.7220    -2.6210 c          1 JAJ       0.859600
     29 O31          4.3730    -1.8830    -2.8710 o          1 JAJ      -0.835800
     30 O32          2.9970    -0.2510    -3.4440 o          1 JAJ      -0.835800
     31 C33          3.7200     2.4530    -1.8820 c3         1 JAJ       0.193300
     32 C34          4.4920     3.2220    -0.8410 cc         1 JAJ      -0.022400
     33 C35          5.7940     3.0830    -0.5910 cd         1 JAJ      -0.179000
     34 C36          6.2860     3.9000     0.4130 cd         1 JAJ      -0.165000
     35 C37          5.3820     4.7010     0.9780 cc         1 JAJ      -0.113100
     36 S38          3.8130     4.4470     0.2240 ss         1 JAJ      -0.105800
     37 O39          1.2750     2.2240    -0.7660 o          1 JAJ      -0.600100
     38 O40         -0.2470    -0.6130    -2.3780 o          1 JAJ      -0.618800
     39 C41          0.6120    -3.2070    -1.3940 ca         1 JAJ       0.029000
     40 C42          0.9070    -4.5290    -1.1460 ca         1 JAJ      -0.216000
     41 H121        -0.5000     0.5540     0.6670 hn         1 JAJ       0.483800
     42 H131         1.8260    -0.8850    -0.5100 h1         1 JAJ       0.088700
     43 H172         0.6290     3.2300     3.4030 h1         1 JAJ       0.021700
     44 H171        -0.4960     1.9210     3.7860 h1         1 JAJ       0.021700
     45 H241         3.2530    -0.0030     5.0510 ha         1 JAJ       0.112000
     46 H261         3.3680    -1.5810     1.0840 ha         1 JAJ       0.146000
     47 H031         1.1620    -7.0320    -0.4560 hn         1 JAJ       0.338500
     48 H061        -2.6740    -4.9730     1.7570 ha         1 JAJ       0.140000
     49 H071        -2.1040    -7.3210     2.1540 ha         1 JAJ       0.153000
     50 H081        -2.2570    -2.9900     0.4030 ha         1 JAJ       0.158000
     51 H182        -2.0610     2.7130     2.0880 hc         1 JAJ       0.068200
     52 H181        -0.9150     3.9560     1.5680 hc         1 JAJ       0.068200
     53 H192        -1.0290     4.9970     3.8090 hc         1 JAJ       0.024200
     54 H191        -2.1760     3.7540     4.3280 hc         1 JAJ       0.024200
     55 H231         1.4920     1.5820     4.3750 ha         1 JAJ       0.138000
     56 H251         4.1910    -1.5830     3.4070 ha         1 JAJ       0.118000
     57 H291         3.6790    -0.6480    -0.4950 h1         1 JAJ       0.040200
     58 H292         5.0290     0.2370    -1.2180 h1         1 JAJ       0.040200
     59 H331         4.3780     2.1990    -2.7040 h1         1 JAJ       0.076200
     60 H332         2.9030     3.0620    -2.2490 h1         1 JAJ       0.076200
     61 H351         6.4200     2.3850    -1.1320 ha         1 JAJ       0.145000
     62 H361         7.3250     3.8870     0.7180 ha         1 JAJ       0.124000
     63 H371         5.5840     5.4060     1.7760 h4         1 JAJ       0.152000
     64 H411         0.8910    -3.1040    -2.4350 ha         1 JAJ       0.194000
     65 H421         1.6530    -5.0240    -1.7560 ha         1 JAJ       0.150000
     66 O01         -0.1120    -8.4650     1.0500 o          1 JAJ      -0.676500
     67 C20         -2.9530     5.1380     2.9080 c          1 JAJ       0.892600
@<TRIPOS>BOND
     1    66     7 2
     2     7    12 1
     3     7     8 1
     4    12    11 2
     5     8     9 1
     6    11    10 1
     7     9    10 ar
     8     9    40 ar
     9    10    13 ar
    10    40    39 ar
    11    13    14 ar
    12    35    34 2
    13    35    36 1
    14    39    14 ar
    15    14    15 1
    16    34    33 1
    17    36    32 1
    18    38    15 2
    19    16    15 2
    20    15     1 1
    21    33    32 2
    22    22    67 1
    23    32    31 1
    24    21    67 1
    25    67    20 1
    26    27    26 1
    27    27    28 1
    28    37    25 2
    29     1     2 1
    30    26    25 1
    31    26    31 1
    32    25     2 1
    33     2    17 1
    34    20    19 1
    35    30    28 1
    36    28    29 1
    37    19     4 1
    38    18     4 1
    39    18     3 1
    40    17     3 ar
    41    17     6 ar
    42     3    23 ar
    43     6    24 ar
    44    23     5 ar
    45    24     5 ar
    46     1    41 1
    47     2    42 1
    48     4    43 1
    49     4    44 1
    50     5    45 1
    51     6    46 1
    52     8    47 1
    53    11    48 1
    54    12    49 1
    55    13    50 1
    56    19    51 1
    57    19    52 1
    58    20    53 1
    59    20    54 1
    60    23    55 1
    61    24    56 1
    62    27    57 1
    63    27    58 1
    64    31    59 1
    65    31    60 1
    66    33    61 1
    67    34    62 1
    68    35    63 1
    69    39    64 1
    70    40    65 1
@<TRIPOS>SUBSTRUCTURE
     1 JAJ         1 TEMP              0 ****  ****    0 ROOT
