@<TRIPOS>MOLECULE
molecule
   36    39     1     0     0
SMALL
bcc


@<TRIPOS>ATOM
      1 C1           0.0000     0.0000     0.0000 c3         1 JAK      -0.092400
      2 C2           1.5060     0.0000     0.0000 cc         1 JAK       0.400800
      3 N3           2.2530     0.0000     1.0650 nd         1 JAK      -0.582100
      4 C4           3.5610    -0.0000     0.7030 ca         1 JAK      -0.065900
      5 C5           4.7690    -0.0010     1.4080 ca         1 JAK       0.510200
      6 N6           5.9230     0.0010     0.7780 nb         1 JAK      -0.719000
      7 C7           6.0100     0.0010    -0.5490 ca         1 JAK       0.462800
      8 C8           4.8450     0.0010    -1.3350 ca         1 JAK      -0.219100
      9 C9           3.5950     0.0010    -0.7010 ca         1 JAK      -0.025200
     10 N10          2.2870    -0.0050    -1.1160 na         1 JAK      -0.133300
     11 C11          1.8170    -0.0130    -2.5040 c3         1 JAK       0.057000
     12 C12          2.3330     1.2360    -3.2250 c3         1 JAK      -0.103400
     13 C13          1.8910     1.1920    -4.6890 c3         1 JAK       0.158800
     14 N14          2.4240    -0.0190    -5.3270 n7         1 JAK      -0.822200
     15 C15          1.9050    -1.2320    -4.6810 c3         1 JAK       0.158800
     16 C16          2.3470    -1.2600    -3.2170 c3         1 JAK      -0.103400
     17 C17          5.2910     0.0020    -2.7280 cc         1 JAK      -0.205200
     18 C18          6.6330     0.0030    -2.7090 cd         1 JAK      -0.107100
     19 N19          7.0790     0.0020    -1.4150 na         1 JAK      -0.268100
     20 H1          -0.3610     0.0060     1.0210 hc         1 JAK       0.056367
     21 H1A         -0.3610    -0.8880    -0.5050 hc         1 JAK       0.056367
     22 H1B         -0.3610     0.8810    -0.5160 hc         1 JAK       0.056367
     23 H5           4.7540    -0.0020     2.4910 h4         1 JAK       0.036100
     24 H11          0.7340    -0.0190    -2.5240 h1         1 JAK       0.066700
     25 H12          3.4150     1.2600    -3.1760 hc         1 JAK       0.070200
     26 H12A         1.9250     2.1200    -2.7510 hc         1 JAK       0.070200
     27 H13          0.8090     1.1780    -4.7380 h1         1 JAK       0.035200
     28 H13A         2.2690     2.0660    -5.2050 h1         1 JAK       0.035200
     29 HN14         2.1730    -0.0240    -6.2960 hn         1 JAK       0.357800
     30 H15          2.2930    -2.1050    -5.1910 h1         1 JAK       0.035200
     31 H15A         0.8230    -1.2310    -4.7300 h1         1 JAK       0.035200
     32 H16          3.4290    -1.2710    -3.1670 hc         1 JAK       0.070200
     33 H16A         1.9490    -2.1460    -2.7370 hc         1 JAK       0.070200
     34 H17          4.6580     0.0030    -3.6080 ha         1 JAK       0.175000
     35 H18          7.2680     0.0040    -3.5870 h4         1 JAK       0.169000
     36 H171         8.0410     0.0030    -1.1400 hn         1 JAK       0.304700
@<TRIPOS>BOND
     1     1     2 1
     2     1    20 1
     3     1    21 1
     4     1    22 1
     5     2    10 1
     6     3     2 2
     7     3     4 1
     8     4     9 ar
     9     5     4 ar
    10     5     6 ar
    11     5    23 1
    12     6     7 ar
    13     7     8 ar
    14     7    19 1
    15     8    17 1
    16     9     8 ar
    17     9    10 1
    18    10    11 1
    19    11    12 1
    20    11    24 1
    21    12    13 1
    22    12    25 1
    23    12    26 1
    24    13    27 1
    25    13    28 1
    26    14    13 1
    27    14    29 1
    28    15    14 1
    29    15    30 1
    30    15    31 1
    31    16    11 1
    32    16    15 1
    33    16    32 1
    34    16    33 1
    35    17    18 2
    36    17    34 1
    37    18    35 1
    38    19    18 1
    39    19    36 1
@<TRIPOS>SUBSTRUCTURE
     1 JAK         1 TEMP              0 ****  ****    0 ROOT
