@<TRIPOS>MOLECULE
JAN
   57    61     1     0     0
SMALL
bcc


@<TRIPOS>ATOM
      1 C1          0.2160   -0.2160    0.2690 c3        1 JAN     -0.001400
      2 N1          1.6250   -0.0530    0.1230 na        1 JAN     -0.206900
      3 C2          2.5540   -0.0140    1.1680 cc        1 JAN      0.451400
      4 N2          3.8250    0.0780    0.7090 nd        1 JAN     -0.648000
      5 C3          3.7320    0.0970   -0.6720 cd        1 JAN      0.397200
      6 C4          2.3750    0.0160   -1.0730 cc        1 JAN     -0.350900
      7 C5          1.8190   -0.0210   -2.4580 c3        1 JAN      0.415100
      8 C6          2.9040    0.2390   -3.4810 ca        1 JAN     -0.176300
      9 C7          3.6910    1.3970   -3.3770 ca        1 JAN     -0.095500
     10 C8          4.6860    1.6630   -4.3090 ca        1 JAN     -0.121000
     11 C9          4.9140    0.7600   -5.3590 ca        1 JAN      0.052400
     12 CL1         6.1230    1.0790   -6.4940 cl        1 JAN     -0.028400
     13 C10         4.1440   -0.4030   -5.4610 ca        1 JAN     -0.121000
     14 C11         3.1420   -0.6590   -4.5260 ca        1 JAN     -0.095500
     15 N3          0.8320    1.1770   -2.5620 n4        1 JAN     -0.867600
     16 C12         1.0500   -1.2920   -2.7330 ca        1 JAN     -0.222300
     17 C13         0.0690   -1.3640   -3.7190 ca        1 JAN     -0.075000
     18 C14        -0.6290   -2.5500   -3.9800 ca        1 JAN     -0.121800
     19 C15         1.3780   -2.4610   -2.0200 ca        1 JAN     -0.048000
     20 C16         0.7150   -3.6480   -2.2580 ca        1 JAN     -0.182000
     21 C17        -0.3220   -3.7310   -3.2320 ca        1 JAN      0.137600
     22 N4         -1.0120   -4.9120   -3.4500 n         1 JAN     -0.343000
     23 C18        -0.6670   -6.0950   -2.6950 c3        1 JAN      0.052300
     24 C19        -2.0500   -4.9850   -4.4150 c         1 JAN      0.690700
     25 O1         -2.6660   -6.0500   -4.5720 o         1 JAN     -0.574500
     26 C20        -2.3420   -3.7700   -5.1880 cc        1 JAN     -0.191200
     27 C21        -1.6670   -2.6130   -4.9950 cd        1 JAN      0.051600
     28 C22        -1.9880   -1.4300   -5.8000 ca        1 JAN     -0.077800
     29 C23        -1.0210   -0.8550   -6.6350 ca        1 JAN     -0.127000
     30 C24        -1.3530    0.2560   -7.4150 ca        1 JAN      0.006400
     31 CL2        -0.1730    0.9560   -8.4140 cl        1 JAN     -0.071400
     32 C25        -2.6460    0.7910   -7.3810 ca        1 JAN     -0.109000
     33 C26        -3.6060    0.2070   -6.5570 ca        1 JAN     -0.116000
     34 C27        -3.2840   -0.8980   -5.7700 ca        1 JAN     -0.113000
     35 H11A       -0.1760   -0.9220   -0.5140 h1        1 JAN      0.066700
     36 H12        -0.0110   -0.6430    1.2850 h1        1 JAN      0.066700
     37 H13A       -0.3050    0.7760    0.1800 h1        1 JAN      0.066700
     38 H2          2.2600   -0.0470    2.2270 h5        1 JAN      0.087100
     39 H3          4.6190    0.1540   -1.3080 h4        1 JAN      0.068100
     40 H7          3.5490    2.0970   -2.5370 ha        1 JAN      0.149000
     41 H8          5.3000    2.5750   -4.2190 ha        1 JAN      0.171500
     42 H10         4.3270   -1.1220   -6.2770 ha        1 JAN      0.171500
     43 H11         2.5480   -1.5840   -4.6180 ha        1 JAN      0.149000
     44 HN31        0.6330    1.3660   -3.5470 hn        1 JAN      0.450800
     45 HN32       -0.0350    0.9480   -2.0740 hn        1 JAN      0.450800
     46 H13        -0.1770   -0.4910   -4.3460 ha        1 JAN      0.133000
     47 H15         2.1880   -2.4410   -1.2710 ha        1 JAN      0.163000
     48 H16         1.0080   -4.5410   -1.6820 ha        1 JAN      0.165000
     49 H181       -0.8180   -5.9090   -1.5990 h1        1 JAN      0.070367
     50 H182        0.4050   -6.3730   -2.8840 h1        1 JAN      0.070367
     51 H183       -1.3250   -6.9500   -3.0120 h1        1 JAN      0.070367
     52 H20        -3.1410   -3.8780   -5.9400 ha        1 JAN      0.186000
     53 H23        -0.0140   -1.2960   -6.6940 ha        1 JAN      0.151000
     54 H25        -2.9060    1.6570   -8.0110 ha        1 JAN      0.163000
     55 H26        -4.6290    0.6150   -6.5380 ha        1 JAN      0.155000
     56 H27        -4.0520   -1.3630   -5.1320 ha        1 JAN      0.150000
     57 H33         1.2640    2.0020   -2.1390 hn        1 JAN      0.450800
@<TRIPOS>BOND
     1    1    2 1
     2    1   35 1
     3    1   36 1
     4    1   37 1
     5    2    3 1
     6    2    6 1
     7    3    4 2
     8    3   38 1
     9    4    5 1
    10    5    6 2
    11    5   39 1
    12    6    7 1
    13    7    8 1
    14    7   15 1
    15    7   16 1
    16    8    9 ar
    17    8   14 ar
    18    9   10 ar
    19    9   40 1
    20   10   11 ar
    21   10   41 1
    22   11   12 1
    23   11   13 ar
    24   13   14 ar
    25   13   42 1
    26   14   43 1
    27   15   44 1
    28   15   45 1
    29   15   57 1
    30   16   17 ar
    31   16   19 ar
    32   17   18 ar
    33   17   46 1
    34   18   21 ar
    35   18   27 1
    36   19   20 ar
    37   19   47 1
    38   20   21 ar
    39   20   48 1
    40   21   22 1
    41   22   23 1
    42   22   24 1
    43   23   49 1
    44   23   50 1
    45   23   51 1
    46   24   25 2
    47   24   26 1
    48   26   27 2
    49   26   52 1
    50   27   28 1
    51   28   29 ar
    52   28   34 ar
    53   29   30 ar
    54   29   53 1
    55   30   31 1
    56   30   32 ar
    57   32   33 ar
    58   32   54 1
    59   33   34 ar
    60   33   55 1
    61   34   56 1
@<TRIPOS>SUBSTRUCTURE
     1 JAN         1 TEMP              0 ****  ****    0 ROOT
