@<TRIPOS>MOLECULE
molecule
   57    56     1     0     0
SMALL
bcc


@<TRIPOS>ATOM
      1 CAB          0.0000     0.0000     0.0000 c3         1 JAO      -0.086100
      2 CAE          2.0410    -1.2490    -0.7210 c3         1 JAO       0.143400
      3 CAF          2.7800     9.1530    16.3280 c3         1 JAO      -0.092100
      4 CAG          2.2710     9.1520    14.8850 c3         1 JAO      -0.084400
      5 CAH          2.6750     7.8450    14.2020 c3         1 JAO      -0.081400
      6 CAI          2.1650     7.8450    12.7580 c3         1 JAO      -0.082400
      7 CAJ          2.5690     6.5370    12.0750 c3         1 JAO      -0.082400
      8 CAK          2.0590     6.5370    10.6320 c3         1 JAO      -0.082400
      9 CAL          2.4640     5.2300     9.9480 c3         1 JAO      -0.082400
     10 CAM          1.9530     5.2300     8.5060 c3         1 JAO      -0.081400
     11 CAN          2.3580     3.9230     7.8220 c3         1 JAO      -0.082400
     12 CAO          1.8470     3.9220     6.3790 c3         1 JAO      -0.082400
     13 CAP          2.2520     2.6150     5.6960 c3         1 JAO      -0.081400
     14 CAQ          1.7420     2.6150     4.2530 c3         1 JAO      -0.081400
     15 CAR          2.1470     1.3080     3.5690 c3         1 JAO      -0.082400
     16 CAS          1.6360     1.3070     2.1260 c3         1 JAO      -0.080400
     17 CAT          2.0410     0.0000     1.4420 c3         1 JAO      -0.077400
     18 CAU          1.5300     0.0000     0.0000 c3         1 JAO      -0.073700
     19 O3           1.6620    -1.1920    -2.0980 oh         1 JAO      -0.611800
     20 H1          -0.3610    -0.2220     0.9970 hc         1 JAO       0.037700
     21 H2          -0.3610     0.9740    -0.3060 hc         1 JAO       0.037700
     22 H3          -0.3610    -0.7530    -0.6910 hc         1 JAO       0.037700
     23 H4           3.1210    -1.2930    -0.6450 h1         1 JAO       0.019700
     24 H5           3.8600     9.0630    16.3300 hc         1 JAO       0.032367
     25 H6           2.3470     8.3170    16.8640 hc         1 JAO       0.032367
     26 H7           2.4940    10.0790    16.8110 hc         1 JAO       0.032367
     27 H8           1.1910     9.2420    14.8830 hc         1 JAO       0.039700
     28 H9           2.7030     9.9880    14.3490 hc         1 JAO       0.039700
     29 H10          3.7550     7.7550    14.2030 hc         1 JAO       0.040700
     30 H11          2.2430     7.0080    14.7370 hc         1 JAO       0.040700
     31 H12          1.0850     7.9340    12.7570 hc         1 JAO       0.040700
     32 H13          2.5980     8.6810    12.2230 hc         1 JAO       0.040700
     33 H14          2.1370     5.7010    12.6110 hc         1 JAO       0.040700
     34 H15          3.6490     6.4480    12.0770 hc         1 JAO       0.040700
     35 H16          2.4910     7.3740    10.0960 hc         1 JAO       0.040700
     36 H17          0.9800     6.6260    10.6310 hc         1 JAO       0.040700
     37 H18          2.0330     4.3940    10.4840 hc         1 JAO       0.040700
     38 H19          2.3850     6.0670     7.9700 hc         1 JAO       0.040700
     39 H20          3.4380     3.8340     7.8230 hc         1 JAO       0.040700
     40 H21          1.9270     3.0860     8.3580 hc         1 JAO       0.040700
     41 H22          0.7680     4.0110     6.3780 hc         1 JAO       0.041200
     42 H23          2.2790     4.7590     5.8430 hc         1 JAO       0.041200
     43 H24          3.3320     2.5270     5.6960 hc         1 JAO       0.040700
     44 H25          1.8210     1.7790     6.2320 hc         1 JAO       0.040700
     45 H26          2.1730     3.4520     3.7170 hc         1 JAO       0.041700
     46 H27          0.6620     2.7040     4.2520 hc         1 JAO       0.041700
     47 H28          3.2260     1.2190     3.5700 hc         1 JAO       0.040700
     48 H29          1.7150     0.4710     4.1050 hc         1 JAO       0.040700
     49 H30          0.5560     1.3960     2.1260 hc         1 JAO       0.044200
     50 H31          3.1200    -0.0890     1.4430 hc         1 JAO       0.041200
     51 H32          1.8910     0.8850    -0.5110 hc         1 JAO       0.061700
     52 H33          3.5440     5.1420     9.9490 hc         1 JAO       0.040700
     53 H34          0.8740     5.3180     8.5050 hc         1 JAO       0.040700
     54 H35          2.0670     2.1440     1.5900 hc         1 JAO       0.044200
     55 H36          1.6090    -0.8370     1.9780 hc         1 JAO       0.041200
     56 H37          1.6100    -2.1310    -0.2640 h1         1 JAO       0.019700
     57 H38          2.1280    -1.8550    -2.5800 ho         1 JAO       0.400000
@<TRIPOS>BOND
     1     3     4 1
     2     4     5 1
     3     5     6 1
     4     6     7 1
     5     8     7 1
     6     8     9 1
     7    10     9 1
     8    10    11 1
     9    11    12 1
    10    12    13 1
    11    13    14 1
    12    14    15 1
    13    15    16 1
    14    16    17 1
    15    17    18 1
    16     1    18 1
    17    18     2 1
    18    19     2 1
    19     1    20 1
    20     1    21 1
    21     1    22 1
    22     2    23 1
    23     3    24 1
    24     3    25 1
    25     3    26 1
    26     4    27 1
    27     4    28 1
    28     5    29 1
    29     5    30 1
    30     6    31 1
    31     6    32 1
    32     7    33 1
    33     7    34 1
    34     8    35 1
    35     8    36 1
    36     9    37 1
    37    10    38 1
    38    11    39 1
    39    11    40 1
    40    12    41 1
    41    12    42 1
    42    13    43 1
    43    13    44 1
    44    14    45 1
    45    14    46 1
    46    15    47 1
    47    15    48 1
    48    16    49 1
    49    17    50 1
    50    18    51 1
    51     9    52 1
    52    10    53 1
    53    16    54 1
    54    17    55 1
    55     2    56 1
    56    19    57 1
@<TRIPOS>SUBSTRUCTURE
     1 JAO         1 TEMP              0 ****  ****    0 ROOT
