@<TRIPOS>MOLECULE
JAO
   57    56     1     0     0
SMALL
bcc


@<TRIPOS>ATOM
      1 CAB        -0.0110   -0.1340   -0.1270 c3        1 JAO     -0.089100
      2 CAE         2.1700   -1.1900   -0.7130 c3        1 JAO      0.132400
      3 CAF         2.8160    9.1770   16.3210 c3        1 JAO     -0.092100
      4 CAG         2.3240    9.1550   14.8970 c3        1 JAO     -0.080400
      5 CAH         2.7010    7.8650   14.1990 c3        1 JAO     -0.079400
      6 CAI         2.2030    7.8470   12.7700 c3        1 JAO     -0.079400
      7 CAJ         2.5790    6.5560   12.0730 c3        1 JAO     -0.079400
      8 CAK         2.0800    6.5370   10.6450 c3        1 JAO     -0.079400
      9 CAL         2.4540    5.2460    9.9490 c3        1 JAO     -0.079400
     10 CAM         1.9530    5.2260    8.5210 c3        1 JAO     -0.079400
     11 CAN         2.3250    3.9340    7.8250 c3        1 JAO     -0.079400
     12 CAO         1.8240    3.9150    6.3970 c3        1 JAO     -0.079400
     13 CAP         2.1960    2.6230    5.7020 c3        1 JAO     -0.079400
     14 CAQ         1.6950    2.6030    4.2740 c3        1 JAO     -0.079400
     15 CAR         2.0670    1.3110    3.5790 c3        1 JAO     -0.079400
     16 CAS         1.5680    1.2930    2.1500 c3        1 JAO     -0.078400
     17 CAT         1.9330   -0.0040    1.4600 c3        1 JAO     -0.077400
     18 CAU         1.4920   -0.0230    0.0050 c3        1 JAO     -0.067700
     19 O3          1.9640   -1.0090   -2.1060 oh        1 JAO     -0.601800
     20 H1         -0.5090    0.7770    0.2830 hc        1 JAO      0.037700
     21 H2         -0.2870   -0.2380   -1.2060 hc        1 JAO      0.037700
     22 H3         -0.3930   -1.0260    0.4250 hc        1 JAO      0.037700
     23 H4          3.2720   -1.1970   -0.4950 h1        1 JAO      0.020700
     24 H5          3.9290    9.0820   16.3560 hc        1 JAO      0.032700
     25 H6          2.5280   10.1350   16.8170 hc        1 JAO      0.032700
     26 H7          2.3760    8.3320   16.9040 hc        1 JAO      0.032700
     27 H8          1.2090    9.2750   14.8820 hc        1 JAO      0.038700
     28 H9          2.7570   10.0240   14.3350 hc        1 JAO      0.038700
     29 H10         3.8160    7.7440   14.2110 hc        1 JAO      0.039700
     30 H11         2.2680    6.9950   14.7590 hc        1 JAO      0.039700
     31 H12         2.6360    8.7170   12.2090 hc        1 JAO      0.039700
     32 H13         1.0880    7.9690   12.7580 hc        1 JAO      0.039700
     33 H14         3.6950    6.4350   12.0830 hc        1 JAO      0.039700
     34 H15         2.1470    5.6860   12.6340 hc        1 JAO      0.039700
     35 H16         2.5130    7.4060   10.0830 hc        1 JAO      0.039700
     36 H17         0.9650    6.6610   10.6340 hc        1 JAO      0.039700
     37 H18         2.0210    4.3770   10.5110 hc        1 JAO      0.039700
     38 H19         0.8380    5.3510    8.5110 hc        1 JAO      0.039700
     39 H20         3.4400    3.8100    7.8350 hc        1 JAO      0.039700
     40 H21         1.8910    3.0660    8.3880 hc        1 JAO      0.039700
     41 H22         0.7090    4.0400    6.3880 hc        1 JAO      0.039700
     42 H23         2.2580    4.7830    5.8340 hc        1 JAO      0.039700
     43 H24         1.7610    1.7540    6.2650 hc        1 JAO      0.039700
     44 H25         3.3110    2.4980    5.7120 hc        1 JAO      0.039700
     45 H26         2.1300    3.4710    3.7110 hc        1 JAO      0.039700
     46 H27         0.5810    2.7280    4.2640 hc        1 JAO      0.039700
     47 H28         3.1820    1.1850    3.5900 hc        1 JAO      0.039200
     48 H29         1.6310    0.4430    4.1400 hc        1 JAO      0.039200
     49 H30         2.0100    2.1570    1.5860 hc        1 JAO      0.042200
     50 H31         3.0460   -0.1440    1.5130 hc        1 JAO      0.039700
     51 H32         1.8270    0.9300   -0.4940 hc        1 JAO      0.064700
     52 H33         3.5690    5.1230    9.9580 hc        1 JAO      0.039700
     53 H34         2.3870    6.0950    7.9580 hc        1 JAO      0.039700
     54 H35         0.4540    1.4260    2.1400 hc        1 JAO      0.042200
     55 H36         1.4640   -0.8650    2.0050 hc        1 JAO      0.039700
     56 H37         1.7260   -2.1660   -0.3810 h1        1 JAO      0.020700
     57 H38         2.3660   -1.7680   -2.5420 ho        1 JAO      0.398000
@<TRIPOS>BOND
     1    1   18 1   
     2    1   20 1   
     3    1   21 1   
     4    1   22 1   
     5    2   18 1   
     6    2   19 1   
     7    2   23 1   
     8    2   56 1   
     9    3    4 1   
    10    3   24 1   
    11    3   25 1   
    12    3   26 1   
    13    4    5 1   
    14    4   27 1   
    15    4   28 1   
    16    5    6 1   
    17    5   29 1   
    18    5   30 1   
    19    6    7 1   
    20    6   31 1   
    21    6   32 1   
    22    7    8 1   
    23    7   33 1   
    24    7   34 1   
    25    8    9 1   
    26    8   35 1   
    27    8   36 1   
    28    9   10 1   
    29    9   37 1   
    30    9   52 1   
    31   10   11 1   
    32   10   38 1   
    33   10   53 1   
    34   11   12 1   
    35   11   39 1   
    36   11   40 1   
    37   12   13 1   
    38   12   41 1   
    39   12   42 1   
    40   13   14 1   
    41   13   43 1   
    42   13   44 1   
    43   14   15 1   
    44   14   45 1   
    45   14   46 1   
    46   15   16 1   
    47   15   47 1   
    48   15   48 1   
    49   16   17 1   
    50   16   49 1   
    51   16   54 1   
    52   17   18 1   
    53   17   50 1   
    54   17   55 1   
    55   18   51 1   
    56   19   57 1   
@<TRIPOS>SUBSTRUCTURE
     1 JAO         1 TEMP              0 ****  ****    0 ROOT
