@<TRIPOS>MOLECULE
molecule
   51    54     1     0     0
SMALL
bcc


@<TRIPOS>ATOM
      1 C1           0.0000     0.0000     0.0000 c3         1 JAR      -0.106100
      2 C2           1.5300     0.0000     0.0000 c3         1 JAR       0.079000
      3 C3           2.0390     0.0000     1.4430 c3         1 JAR      -0.106100
      4 N4           2.0190    -1.1960    -0.6900 na         1 JAR       0.091400
      5 N5           1.7520    -2.5200    -0.3240 nc         1 JAR      -0.500800
      6 C6           2.3440    -3.3310    -1.1580 cd         1 JAR       0.405200
      7 C7           3.0300    -2.5580    -2.1130 cd         1 JAR      -0.425900
      8 C8           3.8600    -2.8640    -3.2790 c          1 JAR       0.733100
      9 O9           4.0890    -4.0150    -3.6060 o          1 JAR      -0.629500
     10 N10          4.3630    -1.8210    -3.9800 ns         1 JAR      -0.467400
     11 C11          4.0950    -0.5470    -3.5970 cd         1 JAR       0.538900
     12 N12          3.3590    -0.2570    -2.5640 nc         1 JAR      -0.665100
     13 C13          2.8030    -1.2090    -1.7990 cc         1 JAR       0.218100
     14 C14          4.6760     0.5830    -4.4050 c3         1 JAR      -0.134000
     15 C16          6.0740     0.9680    -3.8790 c3         1 JAR       0.161800
     16 N17          6.1740     2.4380    -3.9390 n3         1 JAR      -0.704600
     17 C18          7.3280     2.8550    -4.7460 c3         1 JAR       0.202100
     18 C19          7.5450     4.3380    -4.5860 ca         1 JAR      -0.082300
     19 C20          8.3690     4.8110    -3.5820 ca         1 JAR      -0.115000
     20 C21          8.5660     6.1720    -3.4360 ca         1 JAR      -0.129000
     21 C22          7.9390     7.0580    -4.2920 ca         1 JAR      -0.125000
     22 C23          7.1160     6.5840    -5.2950 ca         1 JAR      -0.129000
     23 C24          6.9230     5.2230    -5.4460 ca         1 JAR      -0.115000
     24 C25          4.9160     2.9730    -4.4990 c3         1 JAR       0.151800
     25 C26          3.8520     1.8820    -4.2050 c3         1 JAR      -0.067700
     26 C28          2.6930     1.9630    -5.2010 c3         1 JAR      -0.087100
     27 H1          -0.3610     0.9650     0.3360 hc         1 JAR       0.049700
     28 H1A         -0.3610    -0.7730     0.6680 hc         1 JAR       0.049700
     29 H1B         -0.3610    -0.1920    -1.0030 hc         1 JAR       0.049700
     30 H2           1.8910     0.8850    -0.5110 h1         1 JAR       0.082700
     31 H3           1.6480    -0.8660     1.9640 hc         1 JAR       0.049700
     32 H3A          1.7080     0.9020     1.9430 hc         1 JAR       0.049700
     33 H3B          3.1220    -0.0360     1.4440 hc         1 JAR       0.049700
     34 H6           2.3130    -4.4130    -1.1200 h4         1 JAR       0.063100
     35 HN10         4.9360    -1.9900    -4.7830 hn         1 JAR       0.339500
     36 H14          4.7250     0.3230    -5.4560 hc         1 JAR       0.068700
     37 H16          6.8380     0.5220    -4.5040 h1         1 JAR       0.054200
     38 H16A         6.1860     0.6340    -2.8550 h1         1 JAR       0.054200
     39 H18          7.1400     2.6280    -5.7880 h1         1 JAR       0.040200
     40 H18A         8.2120     2.3230    -4.4140 h1         1 JAR       0.040200
     41 H20          8.8600     4.1170    -2.9110 ha         1 JAR       0.130000
     42 H21          9.2110     6.5440    -2.6490 ha         1 JAR       0.130000
     43 H22          8.0920     8.1250    -4.1750 ha         1 JAR       0.129000
     44 H23          6.6270     7.2780    -5.9680 ha         1 JAR       0.130000
     45 H24          6.2780     4.8520    -6.2330 ha         1 JAR       0.130000
     46 H25          4.6490     3.9000    -4.0060 h1         1 JAR       0.049700
     47 H25A         5.0140     3.1220    -5.5680 h1         1 JAR       0.049700
     48 H26          3.4990     1.9580    -3.1830 hc         1 JAR       0.101700
     49 H28          2.0130     1.1370    -5.0320 hc         1 JAR       0.038700
     50 H28A         3.0810     1.9110    -6.2110 hc         1 JAR       0.038700
     51 H28B         2.1640     2.8990    -5.0650 hc         1 JAR       0.038700
@<TRIPOS>BOND
     1     1     2 1
     2     1    27 1
     3     1    28 1
     4     1    29 1
     5     3     2 1
     6     2     4 1
     7     2    30 1
     8     3    31 1
     9     3    32 1
    10     3    33 1
    11     4    13 1
    12     4     5 1
    13     5     6 2
    14     7     6 1
    15     6    34 1
    16    13     7 2
    17     7     8 1
    18    10     8 1
    19     8     9 2
    20    11    10 1
    21    10    35 1
    22    14    11 1
    23    12    11 2
    24    12    13 1
    25    15    14 1
    26    25    14 1
    27    14    36 1
    28    16    15 1
    29    15    37 1
    30    15    38 1
    31    17    16 1
    32    16    24 1
    33    18    17 1
    34    17    39 1
    35    17    40 1
    36    23    18 ar
    37    18    19 ar
    38    20    19 ar
    39    19    41 1
    40    21    20 ar
    41    20    42 1
    42    22    21 ar
    43    21    43 1
    44    22    23 ar
    45    22    44 1
    46    23    45 1
    47    24    25 1
    48    24    46 1
    49    24    47 1
    50    25    26 1
    51    25    48 1
    52    26    49 1
    53    26    50 1
    54    26    51 1
@<TRIPOS>SUBSTRUCTURE
     1 JAR         1 TEMP              0 ****  ****    0 ROOT
