@<TRIPOS>MOLECULE
JAY
   77    83     1     0     0
SMALL
bcc


@<TRIPOS>ATOM
      1 FAS          0.0000     0.0000     0.0000 f          1 JAY      -0.121900
      2 CAN          1.3510     0.0000     0.0000 ca         1 JAY       0.127900
      3 CAO          2.0440     0.0000     1.1990 ca         1 JAY      -0.124000
      4 CAP          3.4260     0.0000     1.1990 ca         1 JAY      -0.068000
      5 CAQ          4.1170     0.0010     0.0010 ca         1 JAY      -0.101000
      6 CAR          3.4260     0.0010    -1.1970 ca         1 JAY      -0.080000
      7 CAL          2.0440    -0.0050    -1.1980 ca         1 JAY      -0.186300
      8 CAH          1.2920    -0.0040    -2.5040 c3         1 JAY       0.223200
      9 NAG          2.1660     0.5030    -3.5680 nu         1 JAY      -0.407600
     10 CAE          2.3930     1.8720    -3.6510 ca         1 JAY       0.049600
     11 CAD          3.5640     2.3860    -4.1840 ca         1 JAY      -0.165000
     12 CAC          3.7380     3.7540    -4.2600 ca         1 JAY      -0.043000
     13 CAB          2.7510     4.6160    -3.8100 ca         1 JAY      -0.153000
     14 CAA          1.5800     4.1200    -3.2750 ca         1 JAY       0.001000
     15 CAF          1.3930     2.7450    -3.1850 ca         1 JAY      -0.203600
     16 CAJ          0.1610     2.1650    -2.6210 c          1 JAY       0.667100
     17 OAK         -0.7950     2.8750    -2.3770 o          1 JAY      -0.678500
     18 NAI          0.1050     0.8430    -2.3790 n          1 JAY      -0.138800
     19 CAM         -1.1680     0.2360    -1.9850 c3         1 JAY       0.020700
     20 CAT         -2.2870     0.7580    -2.8910 c3         1 JAY      -0.062900
     21 CAU         -2.0010     0.3410    -4.3360 c3         1 JAY       0.131300
     22 CAX         -1.0760    -1.2850    -2.1250 c3         1 JAY      -0.062900
     23 CAW         -0.8260    -1.6430    -3.5920 c3         1 JAY       0.131300
     24 NAV         -1.9220    -1.1230    -4.4180 n3         1 JAY      -0.532600
     25 CAY         -1.7880    -1.5650    -5.8120 c3         1 JAY       0.130800
     26 CAZ         -1.9580    -3.0840    -5.8840 c3         1 JAY       0.032000
     27 NBA         -1.8230    -3.5250    -7.2750 n          1 JAY      -0.186800
     28 CBB         -0.6230    -3.9480    -7.7220 c          1 JAY       0.664100
     29 OBR          0.3240    -4.0270    -6.9620 o          1 JAY      -0.682500
     30 CBC         -0.4720    -4.3140    -9.1410 ca         1 JAY      -0.202600
     31 CBN          0.6400    -5.0150    -9.6040 ca         1 JAY      -0.015000
     32 CBO          0.7350    -5.3300   -10.9440 ca         1 JAY      -0.131000
     33 CBP         -0.2640    -4.9540   -11.8280 ca         1 JAY      -0.063000
     34 CBQ         -1.3730    -4.2600   -11.3830 ca         1 JAY      -0.105000
     35 CBD         -1.4850    -3.9370   -10.0420 ca         1 JAY       0.037600
     36 NBE         -2.5840    -3.2500    -9.5390 nu         1 JAY      -0.417600
     37 CBF         -2.9950    -3.5050    -8.1510 c3         1 JAY       0.273200
     38 CBG         -3.7070    -4.8320    -8.0780 ca         1 JAY      -0.159300
     39 CBH         -4.5230    -5.2390    -9.1200 ca         1 JAY       0.144900
     40 FBM         -4.6800    -4.4480   -10.2040 f          1 JAY      -0.122900
     41 CBI         -5.1750    -6.4580    -9.0510 ca         1 JAY      -0.137000
     42 CBJ         -5.0130    -7.2660    -7.9420 ca         1 JAY      -0.068000
     43 CBK         -4.1980    -6.8580    -6.9020 ca         1 JAY      -0.112000
     44 CBL         -3.5420    -5.6440    -6.9710 ca         1 JAY      -0.074000
     45 H1           1.5030    -0.0000     2.1380 ha         1 JAY       0.122000
     46 H2           3.9680     0.0000     2.1370 ha         1 JAY       0.109000
     47 H3           5.2000     0.0030     0.0010 ha         1 JAY       0.110000
     48 H4           3.9680    -0.0010    -2.1340 ha         1 JAY       0.113000
     49 H5           0.9850    -1.0140    -2.7470 h2         1 JAY       0.099700
     50 H6           3.0420     0.0200    -3.5390 hn         1 JAY       0.278800
     51 H7           4.3400     1.7180    -4.5380 ha         1 JAY       0.111000
     52 H8           4.6520     4.1560    -4.6780 ha         1 JAY       0.100000
     53 H9           2.9010     5.6870    -3.8760 ha         1 JAY       0.108000
     54 H10          0.8110     4.7980    -2.9240 ha         1 JAY       0.124000
     55 H11         -1.3910     0.4900    -0.9550 h1         1 JAY       0.068700
     56 H12         -3.2330     0.3360    -2.5740 hc         1 JAY       0.046200
     57 H13         -2.3270     1.8380    -2.8290 hc         1 JAY       0.046200
     58 H14         -2.8010     0.6940    -4.9760 h1         1 JAY       0.020950
     59 H15         -1.0600     0.7700    -4.6550 h1         1 JAY       0.020950
     60 H16         -0.2570    -1.6540    -1.5190 hc         1 JAY       0.046200
     61 H17         -2.0050    -1.7350    -1.7980 hc         1 JAY       0.046200
     62 H18          0.1090    -1.2020    -3.9160 h1         1 JAY       0.020950
     63 H19         -0.7770    -2.7200    -3.6960 h1         1 JAY       0.020950
     64 H21         -2.5480    -1.0870    -6.4180 h1         1 JAY       0.016200
     65 H22         -0.8070    -1.2940    -6.1840 h1         1 JAY       0.016200
     66 H23         -2.9390    -3.3550    -5.5120 h1         1 JAY       0.046700
     67 H24         -1.1980    -3.5620    -5.2780 h1         1 JAY       0.046700
     68 H25          1.4230    -5.3110    -8.9170 ha         1 JAY       0.122000
     69 H26          1.5980    -5.8730   -11.3080 ha         1 JAY       0.107000
     70 H27         -0.1760    -5.2080   -12.8780 ha         1 JAY       0.103000
     71 H28         -2.1500    -3.9700   -12.0800 ha         1 JAY       0.120000
     72 H29         -2.4530    -2.2670    -9.6730 hn         1 JAY       0.268800
     73 H30         -3.6650    -2.7170    -7.8290 h2         1 JAY       0.053700
     74 H31         -5.8140    -6.7780    -9.8660 ha         1 JAY       0.120000
     75 H32         -5.5250    -8.2190    -7.8870 ha         1 JAY       0.106000
     76 H33         -4.0700    -7.4940    -6.0340 ha         1 JAY       0.108000
     77 H34         -2.9040    -5.3260    -6.1560 ha         1 JAY       0.121000
@<TRIPOS>BOND
     1     1     2 1   
     2     2     3 ar  
     3     2     7 ar  
     4     3     4 ar  
     5     3    45 1   
     6     4     5 ar  
     7     4    46 1   
     8     5     6 ar  
     9     5    47 1   
    10     6     7 ar  
    11     6    48 1   
    12     7     8 1   
    13     8     9 1   
    14     8    18 1   
    15     8    49 1   
    16     9    10 1   
    17     9    50 1   
    18    10    11 ar  
    19    10    15 ar  
    20    11    12 ar  
    21    11    51 1   
    22    12    13 ar  
    23    12    52 1   
    24    13    14 ar  
    25    13    53 1   
    26    14    15 ar  
    27    14    54 1   
    28    15    16 1   
    29    16    17 2   
    30    16    18 1   
    31    18    19 1   
    32    19    20 1   
    33    19    22 1   
    34    19    55 1   
    35    20    21 1   
    36    20    56 1   
    37    20    57 1   
    38    21    24 1   
    39    21    58 1   
    40    21    59 1   
    41    22    23 1   
    42    22    60 1   
    43    22    61 1   
    44    23    24 1   
    45    23    62 1   
    46    23    63 1   
    47    24    25 1   
    48    25    26 1   
    49    25    64 1   
    50    25    65 1   
    51    26    27 1   
    52    26    66 1   
    53    26    67 1   
    54    27    28 1   
    55    27    37 1   
    56    28    29 2   
    57    28    30 1   
    58    30    31 ar  
    59    30    35 ar  
    60    31    32 ar  
    61    31    68 1   
    62    32    33 ar  
    63    32    69 1   
    64    33    34 ar  
    65    33    70 1   
    66    34    35 ar  
    67    34    71 1   
    68    35    36 1   
    69    36    37 1   
    70    36    72 1   
    71    37    38 1   
    72    37    73 1   
    73    38    39 ar  
    74    38    44 ar  
    75    39    40 1   
    76    39    41 ar  
    77    41    42 ar  
    78    41    74 1   
    79    42    43 ar  
    80    42    75 1   
    81    43    44 ar  
    82    43    76 1   
    83    44    77 1   
@<TRIPOS>SUBSTRUCTURE
     1 JAY         1 TEMP              0 ****  ****    0 ROOT
