@<TRIPOS>MOLECULE
molecule
   30    30     1     0     0
SMALL
bcc


@<TRIPOS>ATOM
      1 C2           0.0000     0.0000     0.0000 c3         1 JAZ       0.144600
      2 C3           1.5310     0.0000     0.0000 c3         1 JAZ       0.113600
      3 C4           2.0410     0.0000     1.4430 c3         1 JAZ       0.131100
      4 C5           1.5300     1.2500     2.1640 c3         1 JAZ       0.113600
      5 C6           0.0010     1.2500     2.1630 c3         1 JAZ       0.144600
      6 C7          -0.5090     1.2500     0.7200 c3         1 JAZ      -0.071700
      7 C8          -2.0400     1.2500     0.7200 c3         1 JAZ       0.224400
      8 O9          -2.5150     2.4730     1.2890 os         1 JAZ      -0.587200
      9 P10         -4.0800     2.8150     1.4480 p5         1 JAZ       1.181900
     10 O11         -4.7470     2.6970     0.1320 o          1 JAZ      -0.911167
     11 O12         -4.7520     1.7820     2.4850 o          1 JAZ      -0.911167
     12 O13         -4.2480     4.3170     2.0010 o          1 JAZ      -0.911167
     13 O14         -0.4760     0.0840     2.8370 oh         1 JAZ      -0.602800
     14 O15         -0.4760    -0.0000    -1.3470 oh         1 JAZ      -0.602800
     15 O16          2.0060    -1.1670    -0.6730 oh         1 JAZ      -0.605800
     16 O17          3.4690    -0.0010     1.4430 oh         1 JAZ      -0.615800
     17 OX0          2.0080     2.4160     1.4890 oh         1 JAZ      -0.605800
     18 H2          -0.3590    -0.8830     0.5150 h1         1 JAZ       0.071700
     19 H3           1.8900     0.8870    -0.5080 h1         1 JAZ       0.040200
     20 H7          -0.1430     2.1330     0.2100 hc         1 JAZ       0.083700
     21 H15         -0.7760    -0.8650    -1.5740 ho         1 JAZ       0.396000
     22 H4           1.6750    -0.8830     1.9530 h1         1 JAZ       0.055700
     23 H16          2.5480    -0.9120    -1.4010 ho         1 JAZ       0.391500
     24 H5           1.8890     1.2470     3.1860 h1         1 JAZ       0.040200
     25 H17          3.7830    -0.6740     2.0240 ho         1 JAZ       0.384000
     26 H6          -0.3570     2.1380     2.6700 h1         1 JAZ       0.071700
     27 HX0          2.4520     2.9750     2.1040 ho         1 JAZ       0.391500
     28 H14         -0.6480     0.2920     3.7400 ho         1 JAZ       0.396000
     29 H81C        -2.4010     1.1610    -0.2970 h1         1 JAZ       0.026200
     30 H82C        -2.4010     0.4140     1.3070 h1         1 JAZ       0.026200
@<TRIPOS>BOND
     1     1     2 1
     2     1     6 1
     3     1    14 1
     4     2     3 1
     5     2    15 1
     6     3     4 1
     7     3    16 1
     8     4     5 1
     9     4    17 1
    10     5     6 1
    11     5    13 1
    12     6     7 1
    13     7     8 1
    14     8     9 1
    15     9    10 1
    16     9    11 1
    17     9    12 1
    18     1    18 1
    19     2    19 1
    20     6    20 1
    21    14    21 1
    22     3    22 1
    23    15    23 1
    24     4    24 1
    25    16    25 1
    26     5    26 1
    27    17    27 1
    28    13    28 1
    29     7    29 1
    30     7    30 1
@<TRIPOS>SUBSTRUCTURE
     1 JAZ         1 TEMP              0 ****  ****    0 ROOT
