@<TRIPOS>MOLECULE
molecule
   77    79     1     0     0
SMALL
bcc


@<TRIPOS>ATOM
      1 C31          0.0000     0.0000     0.0000 c3         1 JB1      -0.092100
      2 C30          1.5300     0.0000     0.0000 c3         1 JB1      -0.084400
      3 C29          2.0390     0.0000     1.4420 c3         1 JB1      -0.085400
      4 C28          3.5690    -0.0000     1.4430 c3         1 JB1      -0.078400
      5 C22          4.0790     0.0000     2.8860 c3         1 JB1      -0.070700
      6 C23          3.6740    -1.3080     3.5690 c3         1 JB1      -0.086400
      7 C24          4.0640    -1.2520     5.0480 c3         1 JB1       0.137400
      8 O03          3.7720    -2.5070     5.6650 oh         1 JB1      -0.612800
      9 C20          5.6040     0.1250     2.8880 c3         1 JB1      -0.069700
     10 C21          6.2120    -1.0260     2.0860 c3         1 JB1      -0.095100
     11 C17          6.0060     1.4580     2.2520 c3         1 JB1      -0.055700
     12 C16          5.3420     2.6390     3.0070 c3         1 JB1      -0.081400
     13 C15          6.4990     3.5610     3.4820 c3         1 JB1      -0.079400
     14 C14          7.6200     3.2330     2.4930 c3         1 JB1      -0.033500
     15 C13          7.5020     1.6850     2.4040 c3         1 JB1      -0.061000
     16 C18          7.9760     1.0680     3.7220 c3         1 JB1      -0.091100
     17 C12          8.4150     1.2200     1.2940 c3         1 JB1      -0.065400
     18 C11          9.8630     1.4690     1.7490 c3         1 JB1      -0.079400
     19 C09         10.1170     2.9440     2.0530 c3         1 JB1      -0.044200
     20 C08          9.0220     3.5040     2.9500 c2         1 JB1      -0.096400
     21 C07          9.2910     4.1870     4.0630 ce         1 JB1      -0.159000
     22 C06         10.6820     4.4210     4.4600 ce         1 JB1      -0.119000
     23 C05         10.9540     5.1130     5.5870 cf         1 JB1      -0.082200
     24 C04         12.3780     5.3770     6.0320 c3         1 JB1      -0.039200
     25 C03         12.4830     5.0550     7.5260 c3         1 JB1       0.152100
     26 O02         13.8060     5.3450     7.9820 oh         1 JB1      -0.610800
     27 C02         11.4790     5.9010     8.3100 c3         1 JB1      -0.108400
     28 C01         10.0510     5.4840     7.9410 c3         1 JB1       0.189300
     29 O01          9.8390     4.1180     8.3030 oh         1 JB1      -0.597800
     30 C10          9.8770     5.6550     6.4410 cf         1 JB1      -0.081200
     31 C19          8.8090     6.2590     5.9220 c2         1 JB1      -0.209000
     32 H31         -0.3610     0.8630     0.5460 hc         1 JB1       0.032700
     33 H31A        -0.3610    -0.9050     0.4740 hc         1 JB1       0.032700
     34 H31B        -0.3610     0.0420    -1.0210 hc         1 JB1       0.032700
     35 H30          1.8910     0.8850    -0.5110 hc         1 JB1       0.039700
     36 H30A         1.8910    -0.8850    -0.5110 hc         1 JB1       0.039700
     37 H29          1.6780    -0.8840     1.9530 hc         1 JB1       0.042200
     38 H29A         1.6780     0.8850     1.9530 hc         1 JB1       0.042200
     39 H28          3.9300    -0.8850     0.9330 hc         1 JB1       0.046200
     40 H28A         3.9300     0.8840     0.9320 hc         1 JB1       0.046200
     41 H22          3.6470     0.8370     3.4220 hc         1 JB1       0.051700
     42 H23          4.1820    -2.1370     3.0920 hc         1 JB1       0.057200
     43 H23A         2.6020    -1.4430     3.4830 hc         1 JB1       0.057200
     44 H24          5.1240    -1.0450     5.1350 h1         1 JB1       0.023200
     45 H24A         3.5010    -0.4680     5.5410 h1         1 JB1       0.023200
     46 HO03         3.6200    -2.3760     6.5860 ho         1 JB1       0.400000
     47 H20          5.9680     0.0870     3.9080 hc         1 JB1       0.061700
     48 H21          6.4970    -0.6710     1.1030 hc         1 JB1       0.037700
     49 H21A         5.4820    -1.8210     1.9850 hc         1 JB1       0.037700
     50 H21B         7.0870    -1.4030     2.6020 hc         1 JB1       0.037700
     51 H17          5.7290     1.4810     1.2050 hc         1 JB1       0.056700
     52 H16          4.7890     2.2680     3.8620 hc         1 JB1       0.043700
     53 H16A         4.6840     3.1820     2.3400 hc         1 JB1       0.043700
     54 H15          6.7960     3.3120     4.4940 hc         1 JB1       0.048200
     55 H15A         6.2140     4.6040     3.4040 hc         1 JB1       0.048200
     56 H14          7.4310     3.6880     1.5280 hc         1 JB1       0.065700
     57 H18          7.2870     1.3350     4.5140 hc         1 JB1       0.040700
     58 H18A         8.9640     1.4430     3.9620 hc         1 JB1       0.040700
     59 H18B         8.0130    -0.0100     3.6240 hc         1 JB1       0.040700
     60 H12          8.2120     1.7860     0.3920 hc         1 JB1       0.044700
     61 H12A         8.2630     0.1630     1.1130 hc         1 JB1       0.044700
     62 H11         10.5380     1.1510     0.9630 hc         1 JB1       0.043700
     63 H11A        10.0560     0.8870     2.6420 hc         1 JB1       0.043700
     64 H09         11.0730     3.0440     2.5530 hc         1 JB1       0.049700
     65 H09A        10.1340     3.5000     1.1240 hc         1 JB1       0.049700
     66 H07          8.4830     4.6120     4.6460 ha         1 JB1       0.146000
     67 H06         11.4920     4.0400     3.8500 ha         1 JB1       0.134000
     68 H04         12.6230     6.4190     5.8670 hc         1 JB1       0.058200
     69 H04A        13.0570     4.7430     5.4750 hc         1 JB1       0.058200
     70 H03         12.2660     4.0050     7.6830 h1         1 JB1       0.052700
     71 HO02        14.1610     4.5900     8.4210 ho         1 JB1       0.402000
     72 H02         11.6220     6.9470     8.0650 hc         1 JB1       0.056200
     73 H02A        11.6340     5.7500     9.3720 hc         1 JB1       0.056200
     74 H01          9.3430     6.1180     8.4620 h1         1 JB1       0.036700
     75 HO01         9.2940     4.0780     9.0720 ho         1 JB1       0.400000
     76 H19          8.7150     6.3640     4.8480 ha         1 JB1       0.122000
     77 H19A         8.0360     6.6470     6.5740 ha         1 JB1       0.122000
@<TRIPOS>BOND
     1     1     2 1
     2     2     3 1
     3     3     4 1
     4     4     5 1
     5     5     6 1
     6     5     9 1
     7     6     7 1
     8     7     8 1
     9     9    10 1
    10     9    11 1
    11    11    12 1
    12    11    15 1
    13    12    13 1
    14    13    14 1
    15    14    15 1
    16    14    20 1
    17    15    16 1
    18    15    17 1
    19    17    18 1
    20    18    19 1
    21    19    20 1
    22    20    21 2
    23    21    22 1
    24    22    23 2
    25    23    24 1
    26    23    30 1
    27    24    25 1
    28    25    26 1
    29    25    27 1
    30    27    28 1
    31    28    29 1
    32    28    30 1
    33    30    31 2
    34     1    32 1
    35     1    33 1
    36     1    34 1
    37     2    35 1
    38     2    36 1
    39     3    37 1
    40     3    38 1
    41     4    39 1
    42     4    40 1
    43     5    41 1
    44     6    42 1
    45     6    43 1
    46     7    44 1
    47     7    45 1
    48     8    46 1
    49     9    47 1
    50    10    48 1
    51    10    49 1
    52    10    50 1
    53    11    51 1
    54    12    52 1
    55    12    53 1
    56    13    54 1
    57    13    55 1
    58    14    56 1
    59    16    57 1
    60    16    58 1
    61    16    59 1
    62    17    60 1
    63    17    61 1
    64    18    62 1
    65    18    63 1
    66    19    64 1
    67    19    65 1
    68    21    66 1
    69    22    67 1
    70    24    68 1
    71    24    69 1
    72    25    70 1
    73    26    71 1
    74    27    72 1
    75    27    73 1
    76    28    74 1
    77    29    75 1
    78    31    76 1
    79    31    77 1
@<TRIPOS>SUBSTRUCTURE
     1 JB1         1 TEMP              0 ****  ****    0 ROOT
