@<TRIPOS>MOLECULE
JB1
   77    79     1     0     0
SMALL
bcc


@<TRIPOS>ATOM
      1 C31         0.0910    0.7390   -0.3230 c3        1 JB1     -0.093100
      2 C30         1.5110    0.2400   -0.2470 c3        1 JB1     -0.080400
      3 C29         2.0080    0.1930    1.1830 c3        1 JB1     -0.081400
      4 C28         3.4380   -0.3010    1.2490 c3        1 JB1     -0.075400
      5 C22         3.9550   -0.3780    2.6800 c3        1 JB1     -0.059700
      6 C23         3.4350   -1.6300    3.3740 c3        1 JB1     -0.118400
      7 C24         3.3550   -1.4450    4.8810 c3        1 JB1      0.125400
      8 O03         2.8630   -2.6040    5.5260 oh        1 JB1     -0.599800
      9 C20         5.4920   -0.3290    2.7350 c3        1 JB1     -0.052700
     10 C21         6.0950   -1.2240    1.6710 c3        1 JB1     -0.091100
     11 C17         5.9970    1.1070    2.6260 c3        1 JB1     -0.054700
     12 C16         5.4310    2.0060    3.7450 c3        1 JB1     -0.079400
     13 C15         6.5260    2.9960    4.1480 c3        1 JB1     -0.074400
     14 C14         7.6040    2.8230    3.0880 c3        1 JB1     -0.035500
     15 C13         7.5270    1.3140    2.7210 c3        1 JB1     -0.040000
     16 C18         8.1230    0.4540    3.8220 c3        1 JB1     -0.083100
     17 C12         8.2980    1.1370    1.4220 c3        1 JB1     -0.067400
     18 C11         9.7370    1.5950    1.5830 c3        1 JB1     -0.073400
     19 C09         9.8860    2.9890    2.1670 c3        1 JB1     -0.044200
     20 C08         9.0070    3.2400    3.3490 c2        1 JB1     -0.083400
     21 C07         9.3980    3.8420    4.4860 ce        1 JB1     -0.148000
     22 C06        10.7450    4.2580    4.7990 ce        1 JB1     -0.110000
     23 C05        11.0710    5.2120    5.6960 cf        1 JB1     -0.072200
     24 C04        12.5050    5.5310    5.9640 c3        1 JB1     -0.036200
     25 C03        12.7750    5.5970    7.4650 c3        1 JB1      0.146100
     26 O02        14.1360    5.9860    7.6090 oh        1 JB1     -0.599800
     27 C02        11.8480    6.6030    8.1360 c3        1 JB1     -0.146400
     28 C01        10.3850    6.2340    7.9050 c3        1 JB1      0.186300
     29 O01        10.0300    5.0420    8.6010 oh        1 JB1     -0.589800
     30 C10        10.0950    6.0030    6.4430 cf        1 JB1     -0.070200
     31 C19         8.9990    6.5300    5.8830 c2        1 JB1     -0.192000
     32 H31        -0.5930    0.0710    0.2550 hc        1 JB1      0.033033
     33 H31A       -0.2550    0.7650   -1.3840 hc        1 JB1      0.033033
     34 H31B        0.0120    1.7700    0.1000 hc        1 JB1      0.033033
     35 H30         2.1790    0.9090   -0.8520 hc        1 JB1      0.038200
     36 H30A        1.5750   -0.7850   -0.6980 hc        1 JB1      0.038200
     37 H29         1.9420    1.2180    1.6360 hc        1 JB1      0.040700
     38 H29A        1.3410   -0.4760    1.7880 hc        1 JB1      0.040700
     39 H28         3.5100   -1.3110    0.7670 hc        1 JB1      0.042200
     40 H28A        4.0880    0.3960    0.6560 hc        1 JB1      0.042200
     41 H22         3.5520    0.5140    3.2380 hc        1 JB1      0.052700
     42 H23         2.4110   -1.8820    2.9920 hc        1 JB1      0.048700
     43 H23A        4.0960   -2.5060    3.1400 hc        1 JB1      0.048700
     44 H24         2.6160   -0.6420    5.1480 h1        1 JB1      0.044700
     45 H24A        4.3610   -1.1710    5.3010 h1        1 JB1      0.044700
     46 HO03        3.4470   -3.3340    5.2890 ho        1 JB1      0.396000
     47 H20         5.8040   -0.7280    3.7440 hc        1 JB1      0.049700
     48 H21         5.5170   -2.1760    1.5840 hc        1 JB1      0.034367
     49 H21A        6.0910   -0.7190    0.6750 hc        1 JB1      0.034367
     50 H21B        7.1500   -1.4860    1.9300 hc        1 JB1      0.034367
     51 H17         5.6620    1.5160    1.6320 hc        1 JB1      0.047700
     52 H16         4.5260    2.5500    3.3790 hc        1 JB1      0.041700
     53 H16A        5.1280    1.3890    4.6280 hc        1 JB1      0.041700
     54 H15         6.9190    2.7500    5.1660 hc        1 JB1      0.046700
     55 H15A        6.1430    4.0440    4.1720 hc        1 JB1      0.046700
     56 H14         7.2670    3.4080    2.1790 hc        1 JB1      0.053700
     57 H18         8.2170   -0.6060    3.4850 hc        1 JB1      0.037700
     58 H18A        9.1380    0.8270    4.1040 hc        1 JB1      0.037700
     59 H18B        7.4760    0.4850    4.7330 hc        1 JB1      0.037700
     60 H12         7.8010    1.7290    0.6090 hc        1 JB1      0.041700
     61 H12A        8.2910    0.0620    1.1060 hc        1 JB1      0.041700
     62 H11        10.2390    1.5730    0.5790 hc        1 JB1      0.040200
     63 H11A       10.2810    0.8630    2.2390 hc        1 JB1      0.040200
     64 H09         9.6190    3.7470    1.3790 hc        1 JB1      0.047200
     65 H09A       10.9650    3.1530    2.4270 hc        1 JB1      0.047200
     66 H07         8.6520    4.0400    5.2800 ha        1 JB1      0.137000
     67 H06        11.5580    3.7190    4.2780 ha        1 JB1      0.124000
     68 H04        13.1840    4.7630    5.5080 hc        1 JB1      0.062200
     69 H04A       12.7610    6.5220    5.5010 hc        1 JB1      0.062200
     70 H03        12.6210    4.5810    7.9270 h1        1 JB1      0.048700
     71 HO02       14.3160    6.0140    8.5560 ho        1 JB1      0.398000
     72 H02        12.0420    7.6240    7.7190 hc        1 JB1      0.052700
     73 H02A       12.0590    6.6350    9.2360 hc        1 JB1      0.052700
     74 H01         9.7370    7.0760    8.2920 h1        1 JB1      0.034700
     75 HO01       10.2780    5.1780    9.5230 ho        1 JB1      0.396000
     76 H19         8.2720    7.1200    6.4560 ha        1 JB1      0.120500
     77 H19A        8.7700    6.4040    4.8160 ha        1 JB1      0.120500
@<TRIPOS>BOND
     1    1    2 1   
     2    1   32 1   
     3    1   33 1   
     4    1   34 1   
     5    2    3 1   
     6    2   35 1   
     7    2   36 1   
     8    3    4 1   
     9    3   37 1   
    10    3   38 1   
    11    4    5 1   
    12    4   39 1   
    13    4   40 1   
    14    5    6 1   
    15    5    9 1   
    16    5   41 1   
    17    6    7 1   
    18    6   42 1   
    19    6   43 1   
    20    7    8 1   
    21    7   44 1   
    22    7   45 1   
    23    8   46 1   
    24    9   10 1   
    25    9   11 1   
    26    9   47 1   
    27   10   48 1   
    28   10   49 1   
    29   10   50 1   
    30   11   12 1   
    31   11   15 1   
    32   11   51 1   
    33   12   13 1   
    34   12   52 1   
    35   12   53 1   
    36   13   14 1   
    37   13   54 1   
    38   13   55 1   
    39   14   15 1   
    40   14   20 1   
    41   14   56 1   
    42   15   16 1   
    43   15   17 1   
    44   16   57 1   
    45   16   58 1   
    46   16   59 1   
    47   17   18 1   
    48   17   60 1   
    49   17   61 1   
    50   18   19 1   
    51   18   62 1   
    52   18   63 1   
    53   19   20 1   
    54   19   64 1   
    55   19   65 1   
    56   20   21 2   
    57   21   22 1   
    58   21   66 1   
    59   22   23 2   
    60   22   67 1   
    61   23   24 1   
    62   23   30 1   
    63   24   25 1   
    64   24   68 1   
    65   24   69 1   
    66   25   26 1   
    67   25   27 1   
    68   25   70 1   
    69   26   71 1   
    70   27   28 1   
    71   27   72 1   
    72   27   73 1   
    73   28   29 1   
    74   28   30 1   
    75   28   74 1   
    76   29   75 1   
    77   30   31 2   
    78   31   76 1   
    79   31   77 1   
@<TRIPOS>SUBSTRUCTURE
     1 JB1         1 TEMP              0 ****  ****    0 ROOT
