@<TRIPOS>MOLECULE
JB7
   58    58     1     0     0
SMALL
bcc


@<TRIPOS>ATOM
      1 C1           0.0000     0.0000     0.0000 c          1 JB7       0.990600
      2 C2           1.5060     0.0000     0.0000 c3         1 JB7      -0.084300
      3 C3           2.0170    -1.2500    -0.7210 c3         1 JB7      -0.012400
      4 C4           3.5410    -1.1890    -0.8300 c3         1 JB7      -0.142400
      5 C5           4.0440    -2.4190    -1.5410 c          1 JB7       0.986600
      6 C15         -1.4750    -2.2920     8.4480 ca         1 JB7      -0.083500
      7 C17         -3.4200    -3.2720     9.4450 ca         1 JB7       0.042100
      8 C18         -3.1590    -2.5920    10.6210 ca         1 JB7      -0.085000
      9 O8          -1.1430     2.6630     9.5660 o          1 JB7      -0.638100
     10 C21         -0.7440     1.3800    11.5060 c3         1 JB7      -0.089100
     11 N3          -0.3650     0.6200     9.1820 n          1 JB7      -0.144800
     12 C13         -0.0200    -0.6990     9.7170 c3         1 JB7       0.094300
     13 C14         -1.2180    -1.6080     9.6210 ca         1 JB7      -0.107300
     14 C19         -2.0600    -1.7580    10.7080 ca         1 JB7      -0.083500
     15 C16         -2.5770    -3.1220     8.3590 ca         1 JB7      -0.085000
     16 C12         -0.2760     0.8740     7.7420 c3         1 JB7       0.037000
     17 C11          1.1250     1.3850     7.4000 c3         1 JB7      -0.049400
     18 C9           2.6180     2.1610     5.5540 c3         1 JB7      -0.023400
     19 C7           2.7120     2.4260     4.0500 c3         1 JB7      -0.070300
     20 C8           4.0490     3.0440     3.7300 c          1 JB7       0.976600
     21 O7           4.3970     4.2140     4.2880 o          1 JB7      -0.906300
     22 O6           4.8070     2.4860     2.9720 o          1 JB7      -0.906300
     23 N2           2.5720     1.1620     3.3220 ns         1 JB7      -0.210900
     24 O5           1.8340     2.2110     1.5080 o          1 JB7      -0.728100
     25 N1           1.9940     0.0000     1.3820 ns         1 JB7      -0.167900
     26 O2          -0.6050    -0.0010     1.0460 o          1 JB7      -0.928800
     27 O1          -0.6710     0.0060    -1.1620 o          1 JB7      -0.928800
     28 O3           5.3600    -2.5820    -1.7520 o          1 JB7      -0.935800
     29 O4           3.2620    -3.2580    -1.9210 o          1 JB7      -0.935800
     30 H1           1.8670     0.8850    -0.5110 h1         1 JB7       0.054700
     31 H2           1.7300    -2.1320    -0.1620 hc         1 JB7       0.024700
     32 H3           1.5860    -1.2950    -1.7140 hc         1 JB7       0.024700
     33 H4           3.8280    -0.3060    -1.3890 hc         1 JB7       0.010700
     34 H5           3.9730    -1.1430     0.1620 hc         1 JB7       0.010700
     35 H6          -0.8150    -2.1750     7.5970 ha         1 JB7       0.120000
     36 H7          -3.8180    -2.7100    11.4720 ha         1 JB7       0.116000
     37 H8           0.2390     1.0370    11.8060 hc         1 JB7       0.018367
     38 H9          -1.4870     0.6460    11.7950 hc         1 JB7       0.018367
     39 H10         -0.9600     2.3240    11.9920 hc         1 JB7       0.018367
     40 H11          0.7980    -1.1180     9.1450 h1         1 JB7       0.031700
     41 H12          0.2770    -0.6020    10.7540 h1         1 JB7       0.031700
     42 H13         -1.8570    -1.2240    11.6280 ha         1 JB7       0.120000
     43 H14         -2.7800    -3.6570     7.4380 ha         1 JB7       0.116000
     44 H15         -1.0110     1.6180     7.4610 h1         1 JB7       0.040700
     45 H16         -0.4670    -0.0460     7.2020 h1         1 JB7       0.040700
     46 H17          1.3160     2.3040     7.9410 hc         1 JB7       0.011200
     47 H18          1.8600     0.6410     7.6820 hc         1 JB7       0.011200
     48 H19          0.4830     2.3940     5.6140 hc         1 JB7       0.026200
     49 H20          1.0270     0.7310     5.3550 hc         1 JB7       0.026200
     50 H21          2.8090     3.0800     6.0950 hc         1 JB7       0.015200
     51 H22          3.3530     1.4160     5.8360 hc         1 JB7       0.015200
     52 H23          1.9210     3.1030     3.7530 h1         1 JB7       0.056700
     53 H25          2.8240     0.3000     3.7630 hn         1 JB7       0.137500
     54 H26          2.2000    -0.8660     1.8390 hn         1 JB7       0.141500
     55 C6           2.1230     1.1620     2.0510 c          1 JB7       0.595100
     56 C20         -0.7660     1.6020    10.0160 c          1 JB7       0.582100
     57 C10          1.2180     1.6500     5.8960 c3         1 JB7      -0.039400
     58 Br          -4.9280    -4.4070     9.3230 br         1 JB7      -0.162100
@<TRIPOS>BOND
     1     1     2 1   
     2     1    26 1   
     3     1    27 1   
     4     2     3 1   
     5     2    25 1   
     6     2    30 1   
     7     3     4 1   
     8     3    31 1   
     9     3    32 1   
    10     4     5 1   
    11     4    33 1   
    12     4    34 1   
    13     5    28 1   
    14     5    29 1   
    15     6    13 ar  
    16     6    15 ar  
    17     6    35 1   
    18     7     8 ar  
    19     7    15 ar  
    20     7    58 1   
    21     8    14 ar  
    22     8    36 1   
    23     9    56 2   
    24    10    37 1   
    25    10    38 1   
    26    10    39 1   
    27    10    56 1   
    28    11    12 1   
    29    11    16 1   
    30    11    56 1   
    31    12    13 1   
    32    12    40 1   
    33    12    41 1   
    34    13    14 ar  
    35    14    42 1   
    36    15    43 1   
    37    16    17 1   
    38    16    44 1   
    39    16    45 1   
    40    17    46 1   
    41    17    47 1   
    42    17    57 1   
    43    18    19 1   
    44    18    50 1   
    45    18    51 1   
    46    18    57 1   
    47    19    20 1   
    48    19    23 1   
    49    19    52 1   
    50    20    21 1   
    51    20    22 1   
    52    23    53 1   
    53    23    55 1   
    54    24    55 2   
    55    25    54 1   
    56    25    55 1   
    57    48    57 1   
    58    49    57 1   
@<TRIPOS>SUBSTRUCTURE
     1 JB7         1 TEMP              0 ****  ****    0 ROOT
