@<TRIPOS>MOLECULE
molecule
   50    52     1     0     0
SMALL
bcc


@<TRIPOS>ATOM
      1 O5           0.0000     0.0000     0.0000 o          1 JBA      -0.611300
      2 S            1.4220     0.0000     0.0000 s6         1 JBA       1.113000
      3 O4           2.1140    -1.0150    -0.7110 o          1 JBA      -0.611300
      4 C18          2.0000     1.6160    -0.5900 c3         1 JBA      -0.217300
      5 C1           1.9990     0.0000     1.7190 c3         1 JBA      -0.223200
      6 C            1.5680    -1.2990     2.4020 c3         1 JBA      -0.083100
      7 C17          3.5020     0.1040     1.7440 c          1 JBA       0.678100
      8 N1           4.2500    -0.7670     1.0380 ns         1 JBA      -0.454400
      9 O3           5.6630    -0.6690     1.0610 oh         1 JBA      -0.365100
     10 O2           4.0400     0.9730     2.3980 o          1 JBA      -0.566100
     11 C2           1.3940     1.1920     2.4620 c3         1 JBA      -0.233400
     12 C3           1.7710     1.1160     3.9430 c3         1 JBA       0.183100
     13 O1           1.1470    -0.0410     4.5700 os         1 JBA      -0.412900
     14 C5           0.3290     0.3680     5.5470 c          1 JBA       0.823600
     15 O           -0.3180    -0.3960     6.2340 o          1 JBA      -0.608500
     16 N            0.2900     1.6990     5.6980 n          1 JBA      -0.414000
     17 C4           1.1880     2.3170     4.7110 c3         1 JBA       0.059000
     18 C6          -0.4800     2.3880     6.6420 ca         1 JBA       0.094600
     19 C16         -1.1880     1.6830     7.6070 ca         1 JBA      -0.166000
     20 C15         -1.9470     2.3580     8.5380 ca         1 JBA      -0.081000
     21 C9          -2.0040     3.7520     8.5100 ca         1 JBA       0.005000
     22 C8          -1.2920     4.4580     7.5390 ca         1 JBA      -0.081000
     23 C7          -0.5310     3.7770     6.6130 ca         1 JBA      -0.166000
     24 C10         -2.7920     4.4580     9.4760 cg         1 JBA      -0.113000
     25 C11         -3.4530     5.0390    10.2530 c1         1 JBA      -0.076100
     26 C12         -4.0920     5.5920    11.2560 cx         1 JBA      -0.057600
     27 C14         -5.3100     5.4460    11.7240 cx         1 JBA      -0.119400
     28 C13         -5.0480     6.5660    10.9610 cx         1 JBA      -0.119400
     29 H19          3.0600     1.7140    -0.3920 h1         1 JBA       0.105367
     30 H21          1.4620     2.4020    -0.0730 h1         1 JBA       0.105367
     31 H20          1.8220     1.6960    -1.6550 h1         1 JBA       0.105367
     32 H1           1.9250    -1.3060     3.4250 hc         1 JBA       0.068367
     33 H3           1.9870    -2.1440     1.8680 hc         1 JBA       0.068367
     34 H2           0.4870    -1.3690     2.3970 hc         1 JBA       0.068367
     35 H17          3.8390    -1.6080     0.6850 hn         1 JBA       0.342500
     36 H18          6.0390    -1.4960     0.8110 ho         1 JBA       0.405000
     37 H5           0.7970     1.7800     1.7760 hc         1 JBA       0.125200
     38 H4           0.7660     0.8330     3.2690 hc         1 JBA       0.125200
     39 H            2.8470     1.0770     4.0650 h1         1 JBA       0.136700
     40 H6           0.5150     2.8190     4.0270 h1         1 JBA       0.086700
     41 H7           2.0270     2.8130     5.1840 h1         1 JBA       0.086700
     42 H16         -1.0550     0.6120     7.7020 ha         1 JBA       0.159000
     43 H15         -2.4980     1.8070     9.2890 ha         1 JBA       0.144000
     44 H9          -1.3360     5.5400     7.5150 ha         1 JBA       0.144000
     45 H8           0.1120     4.3280     5.9380 ha         1 JBA       0.159000
     46 H10         -3.4170     5.9540    12.0230 hc         1 JBA       0.078700
     47 H13         -5.4250     5.6230    12.7860 hc         1 JBA       0.077700
     48 H14         -5.9060     4.6820    11.2380 hc         1 JBA       0.077700
     49 H12         -4.9560     7.4970    11.5080 hc         1 JBA       0.077700
     50 H11         -5.4390     6.5510     9.9510 hc         1 JBA       0.077700
@<TRIPOS>BOND
     1     9     8 1
     2     8     7 1
     3    10     7 2
     4     7     5 1
     5     3     2 2
     6     4     2 1
     7     5     2 1
     8     5     6 1
     9     5    11 1
    10     2     1 2
    11    11    12 1
    12    12    13 1
    13    12    17 1
    14    13    14 1
    15    17    16 1
    16    14    16 1
    17    14    15 2
    18    16    18 1
    19    19    18 ar
    20    19    20 ar
    21    18    23 ar
    22    20    21 ar
    23    23    22 ar
    24    21    22 ar
    25    21    24 1
    26    24    25 3
    27    25    26 1
    28    28    26 1
    29    28    27 1
    30    26    27 1
    31     4    29 1
    32     4    30 1
    33     4    31 1
    34     6    32 1
    35     6    33 1
    36     6    34 1
    37     8    35 1
    38     9    36 1
    39    11    37 1
    40    11    38 1
    41    12    39 1
    42    17    40 1
    43    17    41 1
    44    19    42 1
    45    20    43 1
    46    22    44 1
    47    23    45 1
    48    26    46 1
    49    27    47 1
    50    27    48 1
    51    28    49 1
    52    28    50 1
@<TRIPOS>SUBSTRUCTURE
     1 JBA         1 TEMP              0 ****  ****    0 ROOT
