@<TRIPOS>MOLECULE
JBA
   50    53     1     0     0
SMALL
bcc


@<TRIPOS>ATOM
      1 O5           0.0000     0.0000     0.0000 o          1 JBA      -0.865000
      2 S            1.4220     0.0000     0.0000 s6         1 JBA       2.287000
      3 O4           2.1140    -1.0150    -0.7110 o          1 JBA      -0.865000
      4 C18          2.0000     1.6160    -0.5900 c3         1 JBA      -0.559000
      5 C1           1.9990     0.0000     1.7190 c3         1 JBA      -0.494000
      6 C            1.5680    -1.2990     2.4020 c3         1 JBA      -0.116000
      7 C17          3.5020     0.1040     1.7440 c2         1 JBA       0.232000
      8 N1           4.2500    -0.7670     1.0380 ns         1 JBA       0.114000
      9 O3           5.6630    -0.6690     1.0610 oh         1 JBA      -0.249000
     10 O2           4.0400     0.9730     2.3980 o          1 JBA      -0.381000
     11 C2           1.3940     1.1920     2.4620 c3         1 JBA      -0.289000
     12 C3           1.7710     1.1160     3.9430 DU         1 JBA       0.109000
     13 O1           1.1470    -0.0410     4.5700 os         1 JBA      -0.237000
     14 C5           0.3290     0.3680     5.5470 c2         1 JBA       0.335000
     15 O           -0.3180    -0.3960     6.2340 o          1 JBA      -0.388000
     16 N            0.2900     1.6990     5.6980 n          1 JBA       0.065000
     17 C4           1.1880     2.3170     4.7110 c3         1 JBA      -0.124000
     18 C6          -0.4800     2.3880     6.6420 ca         1 JBA      -0.037000
     19 C16         -1.1880     1.6830     7.6070 ca         1 JBA      -0.146500
     20 C15         -1.9470     2.3580     8.5380 ca         1 JBA      -0.059000
     21 C9          -2.0040     3.7520     8.5100 ca         1 JBA       0.041000
     22 C8          -1.2920     4.4580     7.5390 ca         1 JBA      -0.059000
     23 C7          -0.5310     3.7770     6.6130 ca         1 JBA      -0.146500
     24 C10         -2.7920     4.4580     9.4760 c1         1 JBA      -0.121000
     25 C11         -3.4530     5.0390    10.2530 c1         1 JBA      -0.109000
     26 C12         -4.0920     5.5920    11.2560 cx         1 JBA      -0.026000
     27 C14         -5.3100     5.4460    11.7240 cx         1 JBA      -0.150500
     28 C13         -5.0480     6.5660    10.9610 cx         1 JBA      -0.150500
     29 H19          3.0600     1.7140    -0.3920 h1         1 JBA       0.107333
     30 H21          1.4620     2.4020    -0.0730 h1         1 JBA       0.107333
     31 H20          1.8220     1.6960    -1.6550 h1         1 JBA       0.107333
     32 H1           1.9250    -1.3060     3.4250 hc         1 JBA       0.073333
     33 H3           1.9870    -2.1440     1.8680 hc         1 JBA       0.073333
     34 H2           0.4870    -1.3690     2.3970 hc         1 JBA       0.073333
     35 H17          3.8390    -1.6080     0.6850 hn         1 JBA       0.104000
     36 H18          6.0390    -1.4960     0.8110 ho         1 JBA       0.198000
     37 H5           0.7970     1.7800     1.7760 hc         1 JBA       0.158000
     38 H4           0.7660     0.8330     3.2690 DU         1 JBA       0.121000
     39 H            2.8470     1.0770     4.0650 ha         1 JBA       0.131000
     40 H6           0.5150     2.8190     4.0270 h1         1 JBA       0.092500
     41 H7           2.0270     2.8130     5.1840 h1         1 JBA       0.092500
     42 H16         -1.0550     0.6120     7.7020 ha         1 JBA       0.138500
     43 H15         -2.4980     1.8070     9.2890 ha         1 JBA       0.111500
     44 H9          -1.3360     5.5400     7.5150 ha         1 JBA       0.111500
     45 H8           0.1120     4.3280     5.9380 ha         1 JBA       0.138500
     46 H10         -3.4170     5.9540    12.0230 hc         1 JBA       0.093000
     47 H13         -5.4250     5.6230    12.7860 hc         1 JBA       0.090000
     48 H14         -5.9060     4.6820    11.2380 hc         1 JBA       0.090000
     49 H12         -4.9560     7.4970    11.5080 hc         1 JBA       0.090000
     50 H11         -5.4390     6.5510     9.9510 hc         1 JBA       0.090000
@<TRIPOS>BOND
     1     1     2 1   
     2     2     3 1   
     3     2     4 1   
     4     2     5 1   
     5     4    29 1   
     6     4    30 1   
     7     4    31 1   
     8     5     6 1   
     9     5     7 1   
    10     5    11 1   
    11     6    32 1   
    12     6    33 1   
    13     6    34 1   
    14     7     8 1   
    15     7    10 1   
    16     8     9 1   
    17     8    35 1   
    18     9    36 1   
    19    11    12 1   
    20    11    37 1   
    21    11    38 1   
    22    12    13 1   
    23    12    17 1   
    24    12    38 1   
    25    12    39 1   
    26    13    14 1   
    27    14    15 1   
    28    14    16 1   
    29    16    17 1   
    30    16    18 1   
    31    17    40 1   
    32    17    41 1   
    33    18    19 1   
    34    18    23 1   
    35    19    20 1   
    36    19    42 1   
    37    20    21 1   
    38    20    43 1   
    39    21    22 1   
    40    21    24 1   
    41    22    23 1   
    42    22    44 1   
    43    23    45 1   
    44    24    25 1   
    45    25    26 1   
    46    26    27 1   
    47    26    28 1   
    48    26    46 1   
    49    27    28 1   
    50    27    47 1   
    51    27    48 1   
    52    28    49 1   
    53    28    50 1   
@<TRIPOS>SUBSTRUCTURE
     1 JBA         1 TEMP              0 ****  ****    0 ROOT
