@<TRIPOS>MOLECULE
molecule
   54    58     1     0     0
SMALL
bcc


@<TRIPOS>ATOM
      1 C1           0.0000     0.0000     0.0000 ca         1 JBI       0.490800
      2 F1           0.9260    -0.3820    -6.1990 f          1 JBI      -0.153900
      3 N1           1.3520     0.0010     2.3380 nb         1 JBI      -0.779000
      4 O1           2.0080     0.5040     8.2970 os         1 JBI      -0.329900
      5 C2           1.4090     0.0000     0.0000 ca         1 JBI      -0.175200
      6 N2          -0.6450    -0.0040     1.1570 nb         1 JBI      -0.808000
      7 C3           2.0720     0.0000     1.2280 ca         1 JBI       0.535200
      8 N3          -0.3820     0.0000    -1.3220 na         1 JBI      -0.273000
      9 C4           0.0270    -0.0020     2.2980 ca         1 JBI       0.944900
     10 N4           1.8110    -0.0010    -1.2980 nc         1 JBI      -0.644100
     11 C5           0.7600    -0.0010    -2.0790 cd         1 JBI       0.668700
     12 N5          -0.6800    -0.0070     3.4930 nu         1 JBI      -0.757300
     13 C6          -1.7570     0.0010    -1.8280 c3         1 JBI       0.051000
     14 N6           0.7960    -0.0010    -3.4590 nu         1 JBI      -0.716600
     15 C7           0.0010     0.1220     4.7090 ca         1 JBI       0.125600
     16 C8           2.0250    -0.0120    -4.1260 ca         1 JBI       0.135600
     17 C9          -2.0020     1.2520    -2.6870 c3         1 JBI      -0.107900
     18 C10         -2.3680     0.7510    -4.1000 c3         1 JBI      -0.090400
     19 C11         -2.9080    -0.6820    -3.8670 c3         1 JBI      -0.090400
     20 C12         -1.9820    -1.2180    -2.7470 c3         1 JBI      -0.107900
     21 C13          2.0700    -0.2040    -5.5030 ca         1 JBI       0.072900
     22 C14          3.2880    -0.2140    -6.1580 ca         1 JBI      -0.140000
     23 C15          4.4600    -0.0320    -5.4450 ca         1 JBI      -0.137000
     24 C16          4.4170     0.1590    -4.0770 ca         1 JBI      -0.115000
     25 C17          3.2040     0.1740    -3.4160 ca         1 JBI      -0.152000
     26 C18          1.1060     0.9580     4.8020 ca         1 JBI      -0.106500
     27 C19          1.7760     1.0860     6.0020 ca         1 JBI      -0.174000
     28 C20          1.3470     0.3780     7.1160 ca         1 JBI       0.123100
     29 C21          0.2440    -0.4570     7.0240 ca         1 JBI      -0.174000
     30 C22         -0.4320    -0.5810     5.8260 ca         1 JBI      -0.106500
     31 C23          1.5100    -0.2520     9.4030 c3         1 JBI       0.129700
     32 H3           3.1540     0.0020     1.2710 h4         1 JBI       0.041100
     33 HN5         -1.6790    -0.0710     3.4830 hn         1 JBI       0.463800
     34 H6          -2.4600    -0.0250    -1.0040 h1         1 JBI       0.097700
     35 HN6         -0.0570    -0.0040    -3.9820 hn         1 JBI       0.471800
     36 H9          -1.1030     1.8540    -2.7300 hc         1 JBI       0.062700
     37 H9A         -2.8220     1.8290    -2.2760 hc         1 JBI       0.062700
     38 H10         -3.1370     1.3780    -4.5360 hc         1 JBI       0.053700
     39 H10A        -1.4880     0.7250    -4.7310 hc         1 JBI       0.053700
     40 H11         -3.9370    -0.6530    -3.5300 hc         1 JBI       0.053700
     41 H11A        -2.8070    -1.2800    -4.7650 hc         1 JBI       0.053700
     42 H12         -2.4700    -2.0170    -2.2030 hc         1 JBI       0.062700
     43 H12A        -1.0400    -1.5550    -3.1650 hc         1 JBI       0.062700
     44 H14          3.3250    -0.3630    -7.2300 ha         1 JBI       0.145000
     45 H15          5.4130    -0.0420    -5.9600 ha         1 JBI       0.135000
     46 H16          5.3370     0.3020    -3.5230 ha         1 JBI       0.137000
     47 H17          3.1730     0.3240    -2.3440 ha         1 JBI       0.214000
     48 H18          1.4420     1.5100     3.9330 ha         1 JBI       0.144000
     49 H19          2.6380     1.7370     6.0740 ha         1 JBI       0.140000
     50 H21         -0.0940    -1.0060     7.8950 ha         1 JBI       0.140000
     51 H22         -1.2930    -1.2340     5.7550 ha         1 JBI       0.144000
     52 H23          0.4880     0.0390     9.6090 h1         1 JBI       0.040033
     53 H23A         1.5430    -1.3080     9.1620 h1         1 JBI       0.040033
     54 H23B         2.1230    -0.0620    10.2750 h1         1 JBI       0.040033
@<TRIPOS>BOND
     1     6     1 ar
     2     1     8 1
     3     1     5 ar
     4    21     2 1
     5     9     3 ar
     6     3     7 ar
     7     4    28 1
     8     4    31 1
     9     5     7 ar
    10     5    10 1
    11     6     9 ar
    12     7    32 1
    13    13     8 1
    14     8    11 1
    15    12     9 1
    16    11    10 2
    17    11    14 1
    18    15    12 1
    19    12    33 1
    20    20    13 1
    21    13    17 1
    22    13    34 1
    23    14    16 1
    24    14    35 1
    25    26    15 ar
    26    15    30 ar
    27    25    16 ar
    28    16    21 ar
    29    18    17 1
    30    17    36 1
    31    17    37 1
    32    19    18 1
    33    18    38 1
    34    18    39 1
    35    19    20 1
    36    19    40 1
    37    19    41 1
    38    20    42 1
    39    20    43 1
    40    21    22 ar
    41    23    22 ar
    42    22    44 1
    43    24    23 ar
    44    23    45 1
    45    25    24 ar
    46    24    46 1
    47    25    47 1
    48    27    26 ar
    49    26    48 1
    50    27    28 ar
    51    27    49 1
    52    28    29 ar
    53    29    30 ar
    54    29    50 1
    55    30    51 1
    56    31    52 1
    57    31    53 1
    58    31    54 1
@<TRIPOS>SUBSTRUCTURE
     1 JBI         1 TEMP              0 ****  ****    0 ROOT
