@<TRIPOS>MOLECULE
JBW
   37    40     1     0     0
SMALL
bcc


@<TRIPOS>ATOM
      1 O            0.0000     0.0000     0.0000 o          1 JBW      -0.631100
      2 C13          1.2180     0.0000     0.0000 c          1 JBW       0.632700
      3 N3           1.8920     0.0000     1.1670 ns         1 JBW      -0.130900
      4 C14          1.1590    -0.0010     2.4360 cx         1 JBW      -0.057300
      5 C16          1.8720    -0.5750     3.6620 cx         1 JBW      -0.120400
      6 C15          1.6570     0.9350     3.5390 cx         1 JBW      -0.120400
      7 C12          1.9480    -0.0040    -1.2660 cc         1 JBW      -0.068700
      8 C11          1.3790    -0.0110    -2.5110 cd         1 JBW      -0.036000
      9 C10          2.2960    -0.0130    -3.5300 cd         1 JBW      -0.092000
     10 S            3.6990     0.0040    -1.4330 ss         1 JBW      -0.205800
     11 C9           3.5860    -0.0110    -3.1350 cc         1 JBW      -0.113300
     12 N2           4.6760    -0.0130    -3.9990 na         1 JBW       0.466600
     13 C1           5.0210     0.9780    -4.8690 cc         1 JBW       0.199800
     14 C            4.2690     2.2710    -5.0480 c3         1 JBW      -0.015400
     15 C3           5.6170    -1.0200    -4.1330 ca         1 JBW      -0.270200
     16 C4           5.7990    -2.2540    -3.5260 ca         1 JBW      -0.092000
     17 C5           6.8670    -3.0530    -3.8870 ca         1 JBW      -0.092000
     18 C6           7.7640    -2.6370    -4.8520 ca         1 JBW      -0.063000
     19 C7           7.6030    -1.4020    -5.4770 ca         1 JBW       0.073000
     20 C2           6.5170    -0.5780    -5.1160 ca         1 JBW       0.089400
     21 N            6.0980     0.6430    -5.5220 nd         1 JBW      -0.513100
     22 C8           8.5340    -0.9720    -6.4770 cg         1 JBW       0.238800
     23 N1           9.2870    -0.6330    -7.2570 n1         1 JBW      -0.376800
     24 H3           2.8840     0.1110     1.2380 hn         1 JBW       0.175500
     25 H14          0.1670    -0.4320     2.4810 h1         1 JBW       0.101700
     26 H161         1.3380    -0.8780     4.5550 hc         1 JBW       0.063950
     27 H162         2.8440    -1.0400     3.5510 hc         1 JBW       0.063950
     28 H151         2.7100     1.0010     3.2960 hc         1 JBW       0.063950
     29 H152         0.8100     1.4870     3.9290 hc         1 JBW       0.063950
     30 H11          0.2980     0.0360    -2.4520 ha         1 JBW       0.159000
     31 H10          2.2700     0.0520    -4.6110 ha         1 JBW       0.137000
     32 HC1          4.1700     2.3570    -6.1230 hc         1 JBW       0.040033
     33 HC2          5.1220     2.9190    -4.8820 hc         1 JBW       0.040033
     34 HC3          3.3490     2.1480    -4.4900 hc         1 JBW       0.040033
     35 H4           5.5350    -2.4110    -2.4870 ha         1 JBW       0.115000
     36 H5           6.8080    -3.8900    -3.2010 ha         1 JBW       0.117000
     37 H6           8.5140    -3.1950    -5.3990 ha         1 JBW       0.118000
@<TRIPOS>BOND
     1     1     2 2   
     2     2     3 1   
     3     2     7 1   
     4     3     4 1   
     5     3    24 1   
     6     4     5 1   
     7     4     6 1   
     8     4    25 1   
     9     5     6 1   
    10     5    26 1   
    11     5    27 1   
    12     6    28 1   
    13     6    29 1   
    14     7     8 2   
    15     7    10 1   
    16     8     9 1   
    17     8    30 1   
    18     9    11 2   
    19     9    31 1   
    20    10    11 1   
    21    11    12 1   
    22    12    13 1   
    23    12    15 1   
    24    13    14 1   
    25    13    21 2   
    26    14    32 1   
    27    14    33 1   
    28    14    34 1   
    29    15    16 ar  
    30    15    20 ar  
    31    16    17 ar  
    32    16    35 1   
    33    17    18 ar  
    34    17    36 1   
    35    18    19 ar  
    36    18    37 1   
    37    19    20 ar  
    38    19    22 1   
    39    20    21 1   
    40    22    23 3   
@<TRIPOS>SUBSTRUCTURE
     1 JBW         1 TEMP              0 ****  ****    0 ROOT
