@<TRIPOS>MOLECULE
molecule
   77    79     1     0     0
SMALL
bcc


@<TRIPOS>ATOM
      1 C31          0.0000     0.0000     0.0000 c3         1 JC1      -0.092100
      2 C30          1.5300     0.0000     0.0000 c3         1 JC1      -0.084400
      3 C29          2.0400     0.0000     1.4430 c3         1 JC1      -0.087400
      4 C28          3.5690     0.0000     1.4430 c3         1 JC1      -0.094400
      5 C22          4.0800    -0.0000     2.8850 c3         1 JC1      -0.063700
      6 C23          3.6450    -1.2920     3.5800 c3         1 JC1      -0.101400
      7 C24          3.9320    -1.1880     5.0790 c3         1 JC1       0.138400
      8 O03          3.4300    -2.3490     5.7430 oh         1 JC1      -0.612800
      9 C20          5.6070     0.0900     2.8860 c3         1 JC1      -0.080700
     10 C21          6.0320     1.5410     3.1260 c3         1 JC1      -0.088100
     11 C17          6.1460    -0.3830     1.5350 c3         1 JC1      -0.063700
     12 C16          7.6050     0.1070     1.3360 c3         1 JC1      -0.083400
     13 C15          8.4640    -1.1660     1.0930 c3         1 JC1      -0.078400
     14 C14          7.4390    -2.1690     0.5590 c3         1 JC1      -0.033500
     15 C13          6.2330    -1.9010     1.5030 c3         1 JC1      -0.062000
     16 C18          6.5640    -2.4180     2.9040 c3         1 JC1      -0.102100
     17 C12          5.0510    -2.6740     0.9650 c3         1 JC1      -0.078400
     18 C11          5.3540    -4.1700     1.1470 c3         1 JC1      -0.079400
     19 C09          6.6300    -4.5850     0.4150 c3         1 JC1      -0.044200
     20 C08          7.7660    -3.6220     0.7290 c2         1 JC1      -0.095400
     21 C07          8.9680    -4.0420     1.1250 ce         1 JC1      -0.159000
     22 C06          9.2300    -5.4760     1.2740 ce         1 JC1      -0.120000
     23 C05         10.4470    -5.9010     1.6760 cf         1 JC1      -0.081200
     24 C04         10.7590    -7.3740     1.8410 c3         1 JC1      -0.045200
     25 C03         11.4720    -7.5680     3.1830 c3         1 JC1       0.152100
     26 O02         11.8230    -8.9450     3.3390 oh         1 JC1      -0.611800
     27 C02         12.7390    -6.7130     3.2240 c3         1 JC1      -0.098400
     28 C01         12.3630    -5.2280     3.2160 c3         1 JC1       0.189300
     29 O01         11.5960    -4.9190     4.3820 oh         1 JC1      -0.597800
     30 C10         11.5410    -4.9510     1.9690 cf         1 JC1      -0.087200
     31 C19         11.7890    -3.9060     1.1800 c2         1 JC1      -0.209000
     32 H31         -0.3610     0.0130    -1.0210 hc         1 JC1       0.032700
     33 H31A        -0.3610     0.8780     0.5220 hc         1 JC1       0.032700
     34 H31B        -0.3610    -0.8910     0.5000 hc         1 JC1       0.032700
     35 H30          1.8910     0.8850    -0.5110 hc         1 JC1       0.039200
     36 H30A         1.8910    -0.8840    -0.5110 hc         1 JC1       0.039200
     37 H29          1.6790    -0.8840     1.9530 hc         1 JC1       0.043200
     38 H29A         1.6790     0.8850     1.9530 hc         1 JC1       0.043200
     39 H28          3.9300    -0.8840     0.9320 hc         1 JC1       0.054200
     40 H28A         3.9300     0.8850     0.9320 hc         1 JC1       0.054200
     41 H22          3.6670     0.8510     3.4140 hc         1 JC1       0.049700
     42 H23          2.5840    -1.4460     3.4250 hc         1 JC1       0.064700
     43 H23A         4.1950    -2.1280     3.1640 hc         1 JC1       0.064700
     44 H24          3.4470    -0.3050     5.4780 h1         1 JC1       0.021700
     45 H24A         5.0010    -1.1150     5.2370 h1         1 JC1       0.021700
     46 HO03         3.3170    -2.1620     6.6600 ho         1 JC1       0.400000
     47 H20          6.0050    -0.5380     3.6740 hc         1 JC1       0.070700
     48 H21          7.0170     1.5580     3.5760 hc         1 JC1       0.033700
     49 H21A         5.3230     2.0200     3.7910 hc         1 JC1       0.033700
     50 H21B         6.0570     2.0710     2.1820 hc         1 JC1       0.033700
     51 H17          5.5190    -0.0270     0.7270 hc         1 JC1       0.066700
     52 H16          7.9480     0.6210     2.2260 hc         1 JC1       0.044700
     53 H16A         7.6620     0.7630     0.4760 hc         1 JC1       0.044700
     54 H15          9.2310    -0.9740     0.3530 hc         1 JC1       0.047700
     55 H15A         8.8950    -1.5190     2.0220 hc         1 JC1       0.047700
     56 H14          7.1780    -1.9460    -0.4690 hc         1 JC1       0.065700
     57 H18          7.1480    -1.6760     3.4350 hc         1 JC1       0.046033
     58 H18A         7.1340    -3.3360     2.8240 hc         1 JC1       0.046033
     59 H18B         5.6450    -2.6100     3.4450 hc         1 JC1       0.046033
     60 H12          4.9170    -2.4530    -0.0870 hc         1 JC1       0.051200
     61 H12A         4.1580    -2.4110     1.5190 hc         1 JC1       0.051200
     62 H11          4.5230    -4.7470     0.7580 hc         1 JC1       0.045700
     63 H11A         5.4710    -4.3790     2.2040 hc         1 JC1       0.045700
     64 H09          6.9120    -5.5820     0.7300 hc         1 JC1       0.048700
     65 H09A         6.4440    -4.5800    -0.6520 hc         1 JC1       0.048700
     66 H07          9.7410    -3.3230     1.3650 ha         1 JC1       0.146000
     67 H06          8.4480    -6.1940     1.0620 ha         1 JC1       0.134000
     68 H04         11.4050    -7.7020     1.0360 hc         1 JC1       0.057700
     69 H04A         9.8380    -7.9440     1.8340 hc         1 JC1       0.057700
     70 H03         10.8110    -7.2670     3.9870 h1         1 JC1       0.053700
     71 HO02        11.3550    -9.3080     4.0720 ho         1 JC1       0.402000
     72 H02         13.2940    -6.9380     4.1280 hc         1 JC1       0.057200
     73 H02A        13.3490    -6.9340     2.3570 hc         1 JC1       0.057200
     74 H01         13.2640    -4.6270     3.1970 h1         1 JC1       0.036700
     75 HO01        12.0850    -4.3300     4.9320 ho         1 JC1       0.400000
     76 H19         12.5970    -3.2250     1.4200 ha         1 JC1       0.122000
     77 H19A        11.1810    -3.7350     0.2990 ha         1 JC1       0.122000
@<TRIPOS>BOND
     1     1     2 1
     2     2     3 1
     3     3     4 1
     4     4     5 1
     5     5     6 1
     6     5     9 1
     7     6     7 1
     8     7     8 1
     9     9    10 1
    10     9    11 1
    11    11    12 1
    12    11    15 1
    13    12    13 1
    14    13    14 1
    15    14    15 1
    16    14    20 1
    17    15    16 1
    18    15    17 1
    19    17    18 1
    20    18    19 1
    21    19    20 1
    22    20    21 2
    23    21    22 1
    24    22    23 2
    25    23    24 1
    26    23    30 1
    27    24    25 1
    28    25    26 1
    29    25    27 1
    30    27    28 1
    31    28    29 1
    32    28    30 1
    33    30    31 2
    34     1    32 1
    35     1    33 1
    36     1    34 1
    37     2    35 1
    38     2    36 1
    39     3    37 1
    40     3    38 1
    41     4    39 1
    42     4    40 1
    43     5    41 1
    44     6    42 1
    45     6    43 1
    46     7    44 1
    47     7    45 1
    48     8    46 1
    49     9    47 1
    50    10    48 1
    51    10    49 1
    52    10    50 1
    53    11    51 1
    54    12    52 1
    55    12    53 1
    56    13    54 1
    57    13    55 1
    58    14    56 1
    59    16    57 1
    60    16    58 1
    61    16    59 1
    62    17    60 1
    63    17    61 1
    64    18    62 1
    65    18    63 1
    66    19    64 1
    67    19    65 1
    68    21    66 1
    69    22    67 1
    70    24    68 1
    71    24    69 1
    72    25    70 1
    73    26    71 1
    74    27    72 1
    75    27    73 1
    76    28    74 1
    77    29    75 1
    78    31    76 1
    79    31    77 1
@<TRIPOS>SUBSTRUCTURE
     1 JC1         1 TEMP              0 ****  ****    0 ROOT
