@<TRIPOS>MOLECULE
JC1
   77    79     1     0     0
SMALL
bcc


@<TRIPOS>ATOM
      1 C31         0.1410    0.8760   -0.7060 c3        1 JC1     -0.093100
      2 C30         1.5530    0.4240   -0.4370 c3        1 JC1     -0.080400
      3 C29         1.8860    0.4900    1.0390 c3        1 JC1     -0.081400
      4 C28         3.3100    0.0410    1.2970 c3        1 JC1     -0.077400
      5 C22         3.6750    0.0940    2.7720 c3        1 JC1     -0.055700
      6 C23         3.0020   -1.0180    3.5660 c3        1 JC1     -0.089400
      7 C24         2.5620   -0.5210    4.9350 c3        1 JC1      0.130400
      8 O03         2.0290   -1.6390    5.6280 oh        1 JC1     -0.602800
      9 C20         5.1940    0.1450    3.0260 c3        1 JC1     -0.049700
     10 C21         5.6060    1.6140    3.0360 c3        1 JC1     -0.094100
     11 C17         6.0790   -0.6260    2.0470 c3        1 JC1     -0.051700
     12 C16         7.5550   -0.1770    2.1520 c3        1 JC1     -0.079400
     13 C15         8.4350   -1.3650    1.7610 c3        1 JC1     -0.076400
     14 C14         7.4590   -2.4440    1.3200 c3        1 JC1     -0.036500
     15 C13         6.1780   -2.1680    2.1650 c3        1 JC1     -0.037000
     16 C18         6.3850   -2.5950    3.6080 c3        1 JC1     -0.086100
     17 C12         5.0610   -2.9670    1.5120 c3        1 JC1     -0.070400
     18 C11         5.3930   -4.4490    1.5060 c3        1 JC1     -0.074400
     19 C09         6.7460   -4.7720    0.8960 c3        1 JC1     -0.044200
     20 C08         7.8450   -3.8800    1.3750 c2        1 JC1     -0.082400
     21 C07         9.0700   -4.3010    1.7330 ce        1 JC1     -0.150000
     22 C06         9.4970   -5.6790    1.8130 ce        1 JC1     -0.108000
     23 C05        10.7770   -6.0990    1.7270 cf        1 JC1     -0.074200
     24 C04        11.1010   -7.5490    1.8630 c3        1 JC1     -0.035200
     25 C03        12.2700   -7.7590    2.8220 c3        1 JC1      0.146100
     26 O02        12.5490   -9.1530    2.8160 oh        1 JC1     -0.599800
     27 C02        13.4860   -6.9580    2.3720 c3        1 JC1     -0.146400
     28 C01        13.1610   -5.4700    2.2940 c3        1 JC1      0.186300
     29 O01        12.9460   -4.9120    3.5890 oh        1 JC1     -0.588800
     30 C10        11.9150   -5.2140    1.4830 cf        1 JC1     -0.069200
     31 C19        11.8940   -4.2290    0.5760 c2        1 JC1     -0.193000
     32 H31        -0.5900    0.2300   -0.1620 hc        1 JC1      0.032700
     33 H31A       -0.0840    0.8200   -1.7980 hc        1 JC1      0.032700
     34 H31B       -0.0070    1.9310   -0.3690 hc        1 JC1      0.032700
     35 H30         1.6880   -0.6270   -0.8040 hc        1 JC1      0.038200
     36 H30A        2.2700    1.0690   -1.0110 hc        1 JC1      0.038200
     37 H29         1.7490    1.5410    1.4060 hc        1 JC1      0.040200
     38 H29A        1.1670   -0.1540    1.6110 hc        1 JC1      0.040200
     39 H28         4.0020    0.7180    0.7260 hc        1 JC1      0.044700
     40 H28A        3.4520   -1.0000    0.9040 hc        1 JC1      0.044700
     41 H22         3.2490    1.0690    3.1620 hc        1 JC1      0.042700
     42 H23         3.6950   -1.8850    3.7140 hc        1 JC1      0.060200
     43 H23A        2.1040   -1.4050    3.0180 hc        1 JC1      0.060200
     44 H24         1.7760    0.2760    4.8380 h1        1 JC1      0.019700
     45 H24A        3.4360   -0.1010    5.5020 h1        1 JC1      0.019700
     46 HO03        1.7600   -1.3210    6.4970 ho        1 JC1      0.398000
     47 H20         5.3760   -0.2700    4.0580 hc        1 JC1      0.052700
     48 H21         5.5860    2.0290    2.0000 hc        1 JC1      0.033367
     49 H21A        6.6300    1.7510    3.4550 hc        1 JC1      0.033367
     50 H21B        4.9080    2.2130    3.6720 hc        1 JC1      0.033367
     51 H17         5.7300   -0.4000    1.0010 hc        1 JC1      0.048700
     52 H16         7.8000    0.1280    3.2000 hc        1 JC1      0.041700
     53 H16A        7.7370    0.6990    1.4840 hc        1 JC1      0.041700
     54 H15         9.1430   -1.0990    0.9400 hc        1 JC1      0.045700
     55 H15A        9.0400   -1.7020    2.6400 hc        1 JC1      0.045700
     56 H14         7.1990   -2.2330    0.2390 hc        1 JC1      0.052700
     57 H18         5.4180   -2.6280    4.1620 hc        1 JC1      0.039033
     58 H18A        6.8460   -3.6130    3.6510 hc        1 JC1      0.039033
     59 H18B        7.0710   -1.8850    4.1310 hc        1 JC1      0.039033
     60 H12         4.0910   -2.8140    2.0500 hc        1 JC1      0.044200
     61 H12A        4.9190   -2.6110    0.4570 hc        1 JC1      0.044200
     62 H11         5.3620   -4.8350    2.5590 hc        1 JC1      0.042200
     63 H11A        4.6010   -4.9960    0.9290 hc        1 JC1      0.042200
     64 H09         6.9830   -5.8480    1.1030 hc        1 JC1      0.046700
     65 H09A        6.6810   -4.6590   -0.2220 hc        1 JC1      0.046700
     66 H07         9.8440   -3.5590    2.0100 ha        1 JC1      0.137000
     67 H06         8.7040   -6.4280    1.9930 ha        1 JC1      0.125000
     68 H04        11.3730   -7.9680    0.8570 hc        1 JC1      0.062200
     69 H04A       10.2170   -8.1290    2.2390 hc        1 JC1      0.062200
     70 H03        11.9750   -7.4360    3.8610 h1        1 JC1      0.048700
     71 HO02       13.2750   -9.2930    3.4340 ho        1 JC1      0.398000
     72 H02        13.8150   -7.3180    1.3630 hc        1 JC1      0.052700
     73 H02A       14.3320   -7.1220    3.0880 hc        1 JC1      0.052700
     74 H01        14.0380   -4.9350    1.8220 h1        1 JC1      0.034700
     75 HO01       13.7180   -5.1430    4.1190 ho        1 JC1      0.396000
     76 H19        11.0140   -4.0320   -0.0510 ha        1 JC1      0.120000
     77 H19A       12.7540   -3.5690    0.4050 ha        1 JC1      0.120000
@<TRIPOS>BOND
     1    1    2 1   
     2    1   32 1   
     3    1   33 1   
     4    1   34 1   
     5    2    3 1   
     6    2   35 1   
     7    2   36 1   
     8    3    4 1   
     9    3   37 1   
    10    3   38 1   
    11    4    5 1   
    12    4   39 1   
    13    4   40 1   
    14    5    6 1   
    15    5    9 1   
    16    5   41 1   
    17    6    7 1   
    18    6   42 1   
    19    6   43 1   
    20    7    8 1   
    21    7   44 1   
    22    7   45 1   
    23    8   46 1   
    24    9   10 1   
    25    9   11 1   
    26    9   47 1   
    27   10   48 1   
    28   10   49 1   
    29   10   50 1   
    30   11   12 1   
    31   11   15 1   
    32   11   51 1   
    33   12   13 1   
    34   12   52 1   
    35   12   53 1   
    36   13   14 1   
    37   13   54 1   
    38   13   55 1   
    39   14   15 1   
    40   14   20 1   
    41   14   56 1   
    42   15   16 1   
    43   15   17 1   
    44   16   57 1   
    45   16   58 1   
    46   16   59 1   
    47   17   18 1   
    48   17   60 1   
    49   17   61 1   
    50   18   19 1   
    51   18   62 1   
    52   18   63 1   
    53   19   20 1   
    54   19   64 1   
    55   19   65 1   
    56   20   21 2   
    57   21   22 1   
    58   21   66 1   
    59   22   23 2   
    60   22   67 1   
    61   23   24 1   
    62   23   30 1   
    63   24   25 1   
    64   24   68 1   
    65   24   69 1   
    66   25   26 1   
    67   25   27 1   
    68   25   70 1   
    69   26   71 1   
    70   27   28 1   
    71   27   72 1   
    72   27   73 1   
    73   28   29 1   
    74   28   30 1   
    75   28   74 1   
    76   29   75 1   
    77   30   31 2   
    78   31   76 1   
    79   31   77 1   
@<TRIPOS>SUBSTRUCTURE
     1 JC1         1 TEMP              0 ****  ****    0 ROOT
