@<TRIPOS>MOLECULE
molecule
   61    61     1     0     0
SMALL
bcc


@<TRIPOS>ATOM
      1 C10          0.0000     0.0000     0.0000 c          1 JC2       0.882600
      2 C11          4.7610     4.3170     5.2950 c3         1 JC2      -0.066200
      3 C12          7.1570     4.6920     5.5250 c          1 JC2       0.744100
      4 C13          9.5090     5.0960     5.5790 c3         1 JC2       0.215700
      5 C14         10.6520     5.0890     6.5610 ca         1 JC2      -0.083300
      6 C15         10.9700     6.2390     7.2600 ca         1 JC2      -0.104000
      7 C16         12.0190     6.2330     8.1590 ca         1 JC2      -0.139000
      8 C19         11.3820     3.9330     6.7650 ca         1 JC2      -0.104000
      9 O01          4.3040     1.6420     6.0090 o          1 JC2      -0.815000
     10 N01          3.0610     2.5570     3.8070 n7         1 JC2      -0.913300
     11 C01          2.7300     1.1760     3.4300 c3         1 JC2       0.242500
     12 C02          1.7280     0.6000     4.4320 c3         1 JC2      -0.251400
     13 C03          1.4920    -0.8790     4.1250 c3         1 JC2      -0.067700
     14 C04          0.3650    -1.4110     5.0130 c3         1 JC2      -0.099600
     15 C05          2.7730    -1.6680     4.4010 c3         1 JC2      -0.099600
     16 C06          2.1240     1.1630     2.0510 c          1 JC2       0.664100
     17 N02          1.9960     0.0000     1.3810 ns         1 JC2      -0.598900
     18 C07          1.5070     0.0000     0.0000 c3         1 JC2       0.017700
     19 O02         -0.6720    -0.0000    -1.1630 o          1 JC2      -0.814300
     20 O03         -0.6040    -0.0050     1.0460 o          1 JC2      -0.814300
     21 O04          1.7520     2.1990     1.5410 o          1 JC2      -0.587100
     22 O05          5.6130     2.1540     3.9130 o          1 JC2      -0.815000
     23 N04          5.9840     4.3620     6.0990 ns         1 JC2      -0.520900
     24 O06          8.2810     4.7340     6.2650 os         1 JC2      -0.439900
     25 C17         12.7510     5.0790     8.3600 ca         1 JC2      -0.131000
     26 C18         12.4300     3.9270     7.6660 ca         1 JC2      -0.139000
     27 O07          7.2010     4.9520     4.3390 o          1 JC2      -0.612000
     28 C08          2.0170    -1.2500    -0.7210 c3         1 JC2      -0.101400
     29 C09          3.5420    -1.1880    -0.8310 c3         1 JC2       0.069800
     30 N03          4.0310    -2.3880    -1.5230 nz         1 JC2      -0.814600
     31 H1           3.9250     4.6370     5.9050 h1         1 JC2       0.060200
     32 H2           4.8840     4.9550     4.4280 h1         1 JC2       0.060200
     33 H3           9.4920     6.1000     5.1720 h1         1 JC2       0.050200
     34 H4           9.6990     4.4480     4.7320 h1         1 JC2       0.050200
     35 H5          10.3960     7.1450     7.1030 ha         1 JC2       0.137500
     36 H6          12.2590     7.1310     8.7150 ha         1 JC2       0.123000
     37 H7          11.1310     3.0310     6.2210 ha         1 JC2       0.137500
     38 H9           2.3400     3.2380     3.9340 hn         1 JC2       0.411800
     39 H10          3.6330     0.5770     3.4350 h1         1 JC2       0.050700
     40 H11          2.7520     0.2470     4.4280 hc         1 JC2       0.109200
     41 H12          1.6400     0.9670     5.4480 hc         1 JC2       0.109200
     42 H13          1.2150    -0.9920     3.0840 hc         1 JC2       0.070700
     43 H14          0.0570    -2.3920     4.6710 hc         1 JC2       0.031200
     44 H15          0.7130    -1.4840     6.0370 hc         1 JC2       0.031200
     45 H16         -0.4800    -0.7370     4.9550 hc         1 JC2       0.031200
     46 H17          2.9310    -2.3880     3.6070 hc         1 JC2       0.031200
     47 H18          2.6460    -2.1240     5.3750 hc         1 JC2       0.031200
     48 H19          3.6260    -1.0020     4.4520 hc         1 JC2       0.031200
     49 H20          2.2650    -0.8580     1.8200 hn         1 JC2       0.292500
     50 H21          1.8680     0.8850    -0.5100 h1         1 JC2       0.079700
     51 H23          5.9490     4.1430     7.0750 hn         1 JC2       0.322500
     52 H24         13.5480     5.1190     9.0930 ha         1 JC2       0.119000
     53 H25         12.9940     3.0170     7.8350 ha         1 JC2       0.123000
     54 H26          1.7260    -2.1340    -0.1680 hc         1 JC2       0.066200
     55 H27          1.5820    -1.3020    -1.7120 hc         1 JC2       0.066200
     56 H28          3.9650    -1.1610     0.1660 hx         1 JC2       0.114200
     57 H29          3.8490    -0.2930    -1.3590 hx         1 JC2       0.114200
     58 H30          4.8960    -2.1730    -1.9770 hn         1 JC2       0.441800
     59 H31          4.1440    -3.1270    -0.8570 hn         1 JC2       0.441800
     60 H033         3.3580    -2.6690    -2.2080 hn         1 JC2       0.441800
     61 P01          4.4670     2.6080     4.7320 p5         1 JC2       1.113500
@<TRIPOS>BOND
     1     7     6 ar
     2     7    25 ar
     3     6     5 ar
     4    25    26 ar
     5     5     4 1
     6     5     8 ar
     7     4    24 1
     8    26     8 ar
     9    24     3 1
    10    27     3 2
    11     3    23 1
    12    23     2 1
    13     2    61 1
    14    22    61 1
    15     9    61 1
    16    20     1 1
    17    61    10 1
    18    19     1 1
    19     1    18 1
    20    10    11 1
    21    18    17 1
    22    18    28 1
    23    17    16 1
    24    16    21 2
    25    16    11 1
    26    11    12 1
    27    28    29 1
    28    29    30 1
    29    12    13 1
    30    15    13 1
    31    13    14 1
    32     2    31 1
    33     2    32 1
    34     4    33 1
    35     4    34 1
    36     6    35 1
    37     7    36 1
    38     8    37 1
    39    10    38 1
    40    11    39 1
    41    12    40 1
    42    12    41 1
    43    13    42 1
    44    14    43 1
    45    14    44 1
    46    14    45 1
    47    15    46 1
    48    15    47 1
    49    15    48 1
    50    17    49 1
    51    18    50 1
    52    23    51 1
    53    25    52 1
    54    26    53 1
    55    28    54 1
    56    28    55 1
    57    29    56 1
    58    29    57 1
    59    30    58 1
    60    30    59 1
    61    60    30 1
@<TRIPOS>SUBSTRUCTURE
     1 JC2         1 TEMP              0 ****  ****    0 ROOT
