@<TRIPOS>MOLECULE
JC2
   61    61     1     0     0
SMALL
bcc


@<TRIPOS>ATOM
      1 C10          0.0000     0.0000     0.0000 c          1 JC2       0.966600
      2 C11          4.7610     4.3170     5.2950 c3         1 JC2       0.009800
      3 C12          7.1570     4.6920     5.5250 c          1 JC2       0.652100
      4 C13          9.5090     5.0960     5.5790 c3         1 JC2       0.298700
      5 C14         10.6520     5.0890     6.5610 ca         1 JC2      -0.097300
      6 C15         10.9700     6.2390     7.2600 ca         1 JC2      -0.077000
      7 C16         12.0190     6.2330     8.1590 ca         1 JC2      -0.114000
      8 C19         11.3820     3.9330     6.7650 ca         1 JC2      -0.077000
      9 O01          4.3040     1.6420     6.0090 o          1 JC2      -0.643500
     10 N01          3.0610     2.5570     3.8070 n7         1 JC2      -0.570300
     11 C01          2.7300     1.1760     3.4300 c3         1 JC2       0.219500
     12 C02          1.7280     0.6000     4.4320 c3         1 JC2      -0.266400
     13 C03          1.4920    -0.8790     4.1250 c3         1 JC2      -0.041700
     14 C04          0.3650    -1.4110     5.0130 c3         1 JC2      -0.015100
     15 C05          2.7730    -1.6680     4.4010 c3         1 JC2      -0.015100
     16 C06          2.1240     1.1630     2.0510 c          1 JC2       0.574100
     17 N02          1.9960     0.0000     1.3810 ns         1 JC2      -0.234900
     18 C07          1.5070     0.0000     0.0000 c3         1 JC2      -0.078300
     19 O02         -0.6720    -0.0000    -1.1630 o          1 JC2      -0.864800
     20 O03         -0.6040    -0.0050     1.0460 o          1 JC2      -0.864800
     21 O04          1.7520     2.1990     1.5410 o          1 JC2      -0.623100
     22 O05          5.6130     2.1540     3.9130 o          1 JC2      -0.643500
     23 N04          5.9840     4.3620     6.0990 ns         1 JC2      -0.068900
     24 O06          8.2810     4.7340     6.2650 os         1 JC2      -0.427900
     25 C17         12.7510     5.0790     8.3600 ca         1 JC2      -0.108000
     26 C18         12.4300     3.9270     7.6660 ca         1 JC2      -0.114000
     27 O07          7.2010     4.9520     4.3390 o          1 JC2      -0.667000
     28 C08          2.0170    -1.2500    -0.7210 c3         1 JC2      -0.027400
     29 C09          3.5420    -1.1880    -0.8310 c3         1 JC2      -0.079200
     30 N03          4.0310    -2.3880    -1.5230 nz         1 JC2       0.071400
     31 H1           3.9250     4.6370     5.9050 h1         1 JC2       0.036700
     32 H2           4.8840     4.9550     4.4280 h1         1 JC2       0.036700
     33 H3           9.4920     6.1000     5.1720 h1         1 JC2       0.007700
     34 H4           9.6990     4.4480     4.7320 h1         1 JC2       0.007700
     35 H5          10.3960     7.1450     7.1030 ha         1 JC2       0.109500
     36 H6          12.2590     7.1310     8.7150 ha         1 JC2       0.096000
     37 H7          11.1310     3.0310     6.2210 ha         1 JC2       0.109500
     38 H9           2.3400     3.2380     3.9340 hn         1 JC2       0.299800
     39 H10          3.6330     0.5770     3.4350 h1         1 JC2       0.026700
     40 H11          2.7520     0.2470     4.4280 hc         1 JC2       0.097700
     41 H12          1.6400     0.9670     5.4480 hc         1 JC2       0.097700
     42 H13          1.2150    -0.9920     3.0840 hc         1 JC2       0.050700
     43 H14          0.0570    -2.3920     4.6710 hc         1 JC2       0.002867
     44 H15          0.7130    -1.4840     6.0370 hc         1 JC2       0.002867
     45 H16         -0.4800    -0.7370     4.9550 hc         1 JC2       0.002867
     46 H17          2.9310    -2.3880     3.6070 hc         1 JC2       0.002867
     47 H18          2.6460    -2.1240     5.3750 hc         1 JC2       0.002867
     48 H19          3.6260    -1.0020     4.4520 hc         1 JC2       0.002867
     49 H20          2.2650    -0.8580     1.8200 hn         1 JC2       0.164500
     50 H21          1.8680     0.8850    -0.5100 h1         1 JC2       0.058700
     51 H23          5.9490     4.1430     7.0750 hn         1 JC2       0.157500
     52 H24         13.5480     5.1190     9.0930 ha         1 JC2       0.093000
     53 H25         12.9940     3.0170     7.8350 ha         1 JC2       0.096000
     54 H26          1.7260    -2.1340    -0.1680 hc         1 JC2       0.037200
     55 H27          1.5820    -1.3020    -1.7120 hc         1 JC2       0.037200
     56 H28          3.9650    -1.1610     0.1660 hx         1 JC2       0.090200
     57 H29          3.8490    -0.2930    -1.3590 hx         1 JC2       0.090200
     58 H30          4.8960    -2.1730    -1.9770 hn         1 JC2       0.212133
     59 H31          4.1440    -3.1270    -0.8570 hn         1 JC2       0.212133
     60 H033         3.3580    -2.6690    -2.2080 hn         1 JC2       0.212133
     61 P01          4.4670     2.6080     4.7320 p5         1 JC2       0.474500
@<TRIPOS>BOND
     1     1    18 1   
     2     1    19 1   
     3     1    20 1   
     4     2    23 1   
     5     2    31 1   
     6     2    32 1   
     7     2    61 1   
     8     3    23 1   
     9     3    24 1   
    10     3    27 2   
    11     4     5 1   
    12     4    24 1   
    13     4    33 1   
    14     4    34 1   
    15     5     6 ar  
    16     5     8 ar  
    17     6     7 ar  
    18     6    35 1   
    19     7    25 ar  
    20     7    36 1   
    21     8    26 ar  
    22     8    37 1   
    23     9    61 1   
    24    10    11 1   
    25    10    38 1   
    26    10    61 1   
    27    11    12 1   
    28    11    16 1   
    29    11    39 1   
    30    12    13 1   
    31    12    40 1   
    32    12    41 1   
    33    13    14 1   
    34    13    15 1   
    35    13    42 1   
    36    14    43 1   
    37    14    44 1   
    38    14    45 1   
    39    15    46 1   
    40    15    47 1   
    41    15    48 1   
    42    16    17 1   
    43    16    21 2   
    44    17    18 1   
    45    17    49 1   
    46    18    28 1   
    47    18    50 1   
    48    22    61 1   
    49    23    51 1   
    50    25    26 ar  
    51    25    52 1   
    52    26    53 1   
    53    28    29 1   
    54    28    54 1   
    55    28    55 1   
    56    29    30 1   
    57    29    56 1   
    58    29    57 1   
    59    30    58 1   
    60    30    59 1   
    61    30    60 1   
@<TRIPOS>SUBSTRUCTURE
     1 JC2         1 TEMP              0 ****  ****    0 ROOT
