@<TRIPOS>MOLECULE
JCB
   32    34     1     0     0
SMALL
bcc


@<TRIPOS>ATOM
      1 C1          0.2600   -0.5370    0.4280 c3        1 JCB     -0.045500
      2 C3          1.6300   -0.7600    0.9850 c2        1 JCB     -0.150200
      3 C5          2.0100   -0.5670    2.2690 ce        1 JCB     -0.077000
      4 C7          0.9890   -0.1120    3.1430 ce        1 JCB     -0.292100
      5 C9         -0.3190    0.1200    2.7140 ce        1 JCB     -0.318700
      6 C10        -0.7710   -0.0240    1.4090 ce        1 JCB     -0.070400
      7 N11        -2.0910    0.1720    1.0490 nh        1 JCB     -0.118600
      8 C13        -3.0560    0.1950    1.9490 c2        1 JCB      0.160100
      9 C15         0.0540    0.3310    4.1050 c1        1 JCB      0.223200
     10 O21        -1.8250   -0.3790   -1.4650 o         1 JCB     -0.597300
     11 O24        -3.8690    0.5790   -0.7050 o         1 JCB     -0.597300
     12 C28        -3.5540    4.0860   -1.8200 ce        1 JCB     -0.082300
     13 S6         -2.4730    0.5290   -0.6240 s6        1 JCB      1.343000
     14 C29        -2.5170    3.5250   -2.7100 ce        1 JCB     -0.085000
     15 C31        -1.7660    2.5110   -2.2230 c2        1 JCB     -0.177200
     16 C33        -1.7470    2.0940   -0.7720 c3        1 JCB     -0.186500
     17 C35        -2.2760    3.2150    0.0870 c2        1 JCB     -0.182300
     18 C37        -3.1760    3.9430   -0.5480 c1        1 JCB     -0.005800
     19 HB          0.3610    0.1830   -0.4340 hc        1 JCB      0.043200
     20 HC         -0.0960   -1.5130   -0.0130 hc        1 JCB      0.043200
     21 H5          2.3520   -1.1210    0.2340 ha        1 JCB      0.129000
     22 H4          3.0300   -0.7480    2.6310 ha        1 JCB      0.148000
     23 HA         -2.8490   -0.0330    3.0090 h4        1 JCB      0.054800
     24 H1         -4.0830    0.4680    1.6460 h4        1 JCB      0.054800
     25 H2         -4.7680    5.6600   -2.5640 hc        1 JCB      0.060033
     26 H10        -5.0900    4.0350   -3.3050 hc        1 JCB      0.060033
     27 H11        -5.6590    4.3960   -1.6150 hc        1 JCB      0.060033
     28 H29        -2.4780    3.8470   -3.7580 ha        1 JCB      0.156000
     29 H13        -1.0900    1.9300   -2.8720 ha        1 JCB      0.161000
     30 H3         -0.6500    2.0410   -0.4780 h1        1 JCB      0.166700
     31 H37        -1.7960    3.4290    1.0460 ha        1 JCB      0.175000
     32 C25        -4.8340    4.5620   -2.3520 c3        1 JCB     -0.049900
@<TRIPOS>BOND
     1    1    2 1   
     2    1    6 1   
     3    1   19 1   
     4    1   20 1   
     5    2    3 2   
     6    2   21 1   
     7    3    4 1   
     8    3   22 1   
     9    4    5 1   
    10    4    9 2   
    11    5    6 1   
    12    5    9 2   
    13    6    7 2   
    14    7    8 2   
    15    7   13 1   
    16    8   23 1   
    17    8   24 1   
    18   10   13 2   
    19   11   13 2   
    20   12   14 1   
    21   12   18 2   
    22   12   32 1   
    23   13   16 1   
    24   14   15 2   
    25   14   28 1   
    26   15   16 1   
    27   15   29 1   
    28   16   17 1   
    29   16   30 1   
    30   17   18 2   
    31   17   31 1   
    32   25   32 1   
    33   26   32 1   
    34   27   32 1   
@<TRIPOS>SUBSTRUCTURE
     1 JCB         1 TEMP              0 ****  ****    0 ROOT
