@<TRIPOS>MOLECULE
molecule
   32    34     1     0     0
SMALL
bcc


@<TRIPOS>ATOM
      1 C1           0.0000     0.0000     0.0000 ca         1 JCB      -0.136000
      2 C3           1.3780     0.0000     0.0000 ca         1 JCB      -0.104000
      3 C5           2.0850     0.0000     1.1940 ca         1 JCB      -0.145000
      4 C7           1.4270    -0.0030     2.3910 ca         1 JCB      -0.082000
      5 C9           0.0310    -0.0040     2.4140 ca         1 JCB      -0.088800
      6 C10         -0.6910    -0.0080     1.2070 ca         1 JCB      -0.029200
      7 N11         -2.0280    -0.0050     1.5330 na         1 JCB      -0.212900
      8 C13         -2.1740    -0.0070     2.8930 cc         1 JCB      -0.091100
      9 C15         -0.9680    -0.0070     3.4840 cd         1 JCB      -0.165200
     10 O21         -3.0160    -1.0900    -0.4380 o          1 JCB      -0.616300
     11 O24         -4.4570     0.1680     1.2090 o          1 JCB      -0.616300
     12 C28         -2.8760     3.7380    -2.0710 ca         1 JCB      -0.020300
     13 S6          -3.2730    -0.0050     0.4440 sy         1 JCB       1.413300
     14 C29         -2.2520     2.5700    -2.4660 ca         1 JCB      -0.151500
     15 C31         -2.3740     1.4270    -1.6980 ca         1 JCB      -0.020000
     16 C33         -3.1170     1.4530    -0.5340 ca         1 JCB      -0.321500
     17 C35         -3.7410     2.6200    -0.1380 ca         1 JCB      -0.020000
     18 C37         -3.6170     3.7640    -0.9030 ca         1 JCB      -0.151500
     19 HB          -0.5430    -0.0000    -0.9370 ha         1 JCB       0.135000
     20 HC           1.9140     0.0020    -0.9410 ha         1 JCB       0.134000
     21 H5           3.1680     0.0000     1.1760 ha         1 JCB       0.132000
     22 H4           1.9860    -0.0030     3.3190 ha         1 JCB       0.133000
     23 HA          -3.1230    -0.0090     3.4170 h4         1 JCB       0.191000
     24 H1          -0.7720    -0.0080     4.5490 ha         1 JCB       0.159000
     25 H2          -2.0720     5.6780    -2.4180 hc         1 JCB       0.051033
     26 H10         -3.7170     5.4450    -3.0250 hc         1 JCB       0.051033
     27 H11         -2.3480     4.7240    -3.8820 hc         1 JCB       0.051033
     28 H29         -1.6690     2.5500    -3.3790 ha         1 JCB       0.139000
     29 H13         -1.8850     0.5120    -2.0080 ha         1 JCB       0.151500
     30 H3          -4.3210     2.6410     0.7770 ha         1 JCB       0.151500
     31 H37         -4.1060     4.6790    -0.5920 ha         1 JCB       0.139000
     32 C25         -2.7440     4.9830    -2.9070 c3         1 JCB      -0.058800
@<TRIPOS>BOND
     1     1     2 ar
     2     1     6 ar
     3     1    19 1
     4     2     3 ar
     5     2    20 1
     6     3     4 ar
     7     3    21 1
     8     4     5 ar
     9     4    22 1
    10     5     6 ar
    11     5     9 1
    12     6     7 1
    13     7     8 1
    14     7    13 1
    15     8     9 2
    16     8    23 1
    17     9    24 1
    18    10    13 2
    19    11    13 2
    20    32    12 1
    21    32    25 1
    22    32    26 1
    23    32    27 1
    24    12    14 ar
    25    12    18 ar
    26    13    16 1
    27    14    15 ar
    28    14    28 1
    29    15    16 ar
    30    15    29 1
    31    16    17 ar
    32    17    18 ar
    33    17    30 1
    34    18    31 1
@<TRIPOS>SUBSTRUCTURE
     1 JCB         1 TEMP              0 ****  ****    0 ROOT
