@<TRIPOS>MOLECULE
JCF
   26    27     1     0     0
SMALL
bcc


@<TRIPOS>ATOM
      1 O1           0.0000     0.0000     0.0000 o          1 JCF      -0.446100
      2 C10          1.2150     0.0000     0.0000 c          1 JCF       0.358700
      3 N1           1.8900     0.0000     1.1670 nz         1 JCF       0.202600
      4 C6           1.9540    -0.0080    -1.2800 ca         1 JCF      -0.238600
      5 C5           1.2550    -0.0130    -2.4770 ca         1 JCF       0.078000
      6 C7           3.3590    -0.0020    -1.2750 ca         1 JCF      -0.194000
      7 C8           4.0620    -0.0080    -2.4430 ca         1 JCF       0.147800
      8 O            5.4200    -0.0030    -2.4170 oh         1 JCF      -0.468100
      9 C9           3.3790    -0.0200    -3.6780 ca         1 JCF       0.398600
     10 C4           1.9610    -0.0200    -3.6890 ca         1 JCF      -0.186300
     11 C3           1.2870    -0.0260    -4.9260 ca         1 JCF      -0.027000
     12 C2           2.0370    -0.0320    -6.0680 ca         1 JCF      -0.191300
     13 N            4.0510    -0.0250    -4.8320 nb         1 JCF      -0.551000
     14 C1           3.4280    -0.0320    -5.9860 ca         1 JCF       0.439600
     15 C            4.2370    -0.0390    -7.2570 c3         1 JCF      -0.055400
     16 H11N         2.4740    -0.8110     1.2150 hn         1 JCF       0.246133
     17 H12N         1.2400    -0.0110     1.9280 hn         1 JCF       0.246133
     18 H5           0.1800    -0.1400    -2.4760 ha         1 JCF       0.133000
     19 H7           3.8900     0.0070    -0.3310 ha         1 JCF       0.093000
     20 H            5.7280     0.8660    -2.2210 ho         1 JCF       0.420000
     21 H3           0.2050    -0.0260    -4.9710 ha         1 JCF       0.125000
     22 H2           1.5510    -0.0370    -7.0360 ha         1 JCF       0.134000
     23 HC1          5.2930    -0.0400    -7.0120 hc         1 JCF       0.030033
     24 HC2          3.9980    -0.9250    -7.8320 hc         1 JCF       0.030033
     25 HC3          4.0030     0.8440    -7.8390 hc         1 JCF       0.030033
     26 H13          2.4470     0.8290     1.2300 hn         1 JCF       0.246133
@<TRIPOS>BOND
     1     1     2 2   
     2     2     3 1   
     3     2     4 1   
     4     3    16 1   
     5     3    17 1   
     6     3    26 1   
     7     4     5 ar  
     8     4     6 ar  
     9     5    10 ar  
    10     5    18 1   
    11     6     7 ar  
    12     6    19 1   
    13     7     8 1   
    14     7     9 ar  
    15     8    20 1   
    16     9    10 ar  
    17     9    13 ar  
    18    10    11 ar  
    19    11    12 ar  
    20    11    21 1   
    21    12    14 ar  
    22    12    22 1   
    23    13    14 ar  
    24    14    15 1   
    25    15    23 1   
    26    15    24 1   
    27    15    25 1   
@<TRIPOS>SUBSTRUCTURE
     1 JCF         1 TEMP              0 ****  ****    0 ROOT
