@<TRIPOS>MOLECULE
JCL
   28    29     1     0     0
SMALL
bcc


@<TRIPOS>ATOM
      1 N3          0.8760   -0.3230    0.5960 n         1 JCL     -0.374000
      2 N1          1.7240    1.0620    2.3570 n         1 JCL     -0.286000
      3 C6          0.5390    0.9450    3.0790 c2        1 JCL     -0.056000
      4 CL          0.4430    1.8190    4.5880 cl        1 JCL      0.266000
      5 C5         -0.4930    0.1770    2.5610 c2        1 JCL     -0.329000
      6 C7         -1.7680   -0.0300    3.2980 c3        1 JCL     -0.068000
      7 C2          1.9180    0.4520    1.1160 c2        1 JCL      0.372000
      8 C4         -0.3520   -0.4950    1.2800 c2        1 JCL      0.360000
      9 O1          2.9980    0.5800    0.4760 o         1 JCL     -0.463000
     10 O2         -1.1950   -1.2230    0.7050 o         1 JCL     -0.437000
     11 C8         -2.5320    1.2560    3.5870 c3        1 JCL     -0.145000
     12 C9         -2.7660    1.4780    5.0690 c3        1 JCL     -0.189000
     13 C10        -2.6660    2.9560    5.4710 c3        1 JCL      0.061000
     14 O27        -2.1630    3.0860    6.7530 os        1 JCL     -0.741000
     15 P          -0.6560    3.8490    6.8720 p5        1 JCL      1.931000
     16 O1P        -0.4120    3.9830    8.3330 o         1 JCL     -0.888000
     17 O2P        -0.7970    5.0540    6.0060 o         1 JCL     -0.888000
     18 O3P         0.2830    2.7620    6.2130 os        1 JCL     -1.112000
     19 H3          1.0180   -0.7530   -0.2870 hn        1 JCL      0.230000
     20 H1          2.4570    1.6360    2.7100 hn        1 JCL      0.259000
     21 H7C1       -2.4230   -0.7210    2.7010 hc        1 JCL      0.072500
     22 H7C2       -1.5310   -0.5590    4.2620 hc        1 JCL      0.072500
     23 H8C1       -3.5190    1.2210    3.0540 hc        1 JCL      0.065000
     24 H8C2       -1.9680    2.1260    3.1580 hc        1 JCL      0.065000
     25 H9C1       -3.7750    1.0810    5.3540 hc        1 JCL      0.070500
     26 H9C2       -2.0100    0.9090    5.6730 hc        1 JCL      0.070500
     27 H101       -2.0210    3.5250    4.7420 h1        1 JCL      0.041000
     28 H102       -3.7050    3.4000    5.4390 h1        1 JCL      0.041000
@<TRIPOS>BOND
     1    1    7 1   
     2    1    8 1   
     3    1   19 1   
     4    2    3 1   
     5    2    7 1   
     6    2   20 1   
     7    3    4 1   
     8    3    5 1   
     9    4   18 1   
    10    5    6 1   
    11    5    8 1   
    12    6   11 1   
    13    6   21 1   
    14    6   22 1   
    15    7    9 1   
    16    8   10 1   
    17   11   12 1   
    18   11   23 1   
    19   11   24 1   
    20   12   13 1   
    21   12   25 1   
    22   12   26 1   
    23   13   14 1   
    24   13   27 1   
    25   13   28 1   
    26   14   15 1   
    27   15   16 1   
    28   15   17 1   
    29   15   18 1   
@<TRIPOS>SUBSTRUCTURE
     1 JCL         1 TEMP              0 ****  ****    0 ROOT
