@<TRIPOS>MOLECULE
molecule
   42    43     1     0     0
SMALL
bcc


@<TRIPOS>ATOM
      1 OAJ          0.0000     0.0000     0.0000 o          1 JD1      -0.907333
      2 PAI          1.6100     0.0000     0.0000 p5         1 JD1       1.082700
      3 OAK          2.1470     0.0000     1.5170 o          1 JD1      -0.907333
      4 OAL          2.1030    -1.2080    -0.6980 o          1 JD1      -0.907333
      5 CAH          2.2160     1.4890    -0.8590 c3         1 JD1      -0.103900
      6 PAM          1.6090     1.4890    -2.5780 p5         1 JD1       1.082700
      7 OAN          2.1450     0.1750    -3.3370 o          1 JD1      -0.907333
      8 OAP          0.1280     1.4890    -2.5770 o          1 JD1      -0.907333
      9 OAO          2.1450     2.8040    -3.3370 o          1 JD1      -0.907333
     10 NAG          1.7290     2.6840    -0.1680 nu         1 JD1      -0.589600
     11 CAD          2.3040     3.0740     1.0450 ca         1 JD1       0.087300
     12 CAE          1.8470     4.2070     1.7090 ca         1 JD1      -0.299000
     13 CAC          3.3350     2.3300     1.6060 ca         1 JD1       0.480200
     14 NAB          3.8830     2.6880     2.7510 nb         1 JD1      -0.735000
     15 CAA          3.4850     3.7580     3.4090 ca         1 JD1       0.290200
     16 CAF          2.4540     4.5550     2.9180 cp         1 JD1      -0.177300
     17 CAQ          2.0100     5.7580     3.6640 cp         1 JD1       0.027000
     18 CAV          2.6260     6.0990     4.8680 ca         1 JD1      -0.127500
     19 CAU          2.2120     7.2180     5.5580 ca         1 JD1      -0.185000
     20 CAR          0.9810     6.5510     3.1610 ca         1 JD1      -0.127500
     21 CAS          0.5720     7.6700     3.8570 ca         1 JD1      -0.185000
     22 CAT          1.1830     8.0040     5.0580 ca         1 JD1       0.010100
     23 OAW          0.7770     9.1070     5.7420 os         1 JD1      -0.349900
     24 CAX          1.5270     9.4600     6.9070 c3         1 JD1       0.147100
     25 CAZ          1.3700    10.9580     7.1780 c3         1 JD1      -0.103100
     26 CAY          1.0080     8.6660     8.1070 c3         1 JD1      -0.103100
     27 H3           3.3000     1.4890    -0.8600 h1         1 JD1       0.032700
     28 H6           0.9940     3.2310    -0.5720 hn         1 JD1       0.440800
     29 H7           1.0420     4.8050     1.2980 ha         1 JD1       0.100000
     30 H8           3.6920     1.4430     1.0970 h4         1 JD1       0.086100
     31 H9           3.9630     4.0180     4.3460 h4         1 JD1      -0.056900
     32 H10          3.4630     5.5170     5.2320 ha         1 JD1       0.144000
     33 H11          2.6960     7.4880     6.4890 ha         1 JD1       0.096500
     34 H12          0.5370     6.3180     2.2010 ha         1 JD1       0.144000
     35 H13         -0.2280     8.2870     3.4660 ha         1 JD1       0.096500
     36 H14          2.5730     9.2290     6.7460 h1         1 JD1       0.048700
     37 H15          0.3180    11.2020     7.2570 hc         1 JD1       0.031200
     38 H16          1.8700    11.2100     8.1060 hc         1 JD1       0.031200
     39 H17          1.8120    11.5200     6.3650 hc         1 JD1       0.031200
     40 H18          0.2740     7.9420     7.7720 hc         1 JD1       0.031200
     41 H19          0.5500     9.3430     8.8170 hc         1 JD1       0.031200
     42 H20          1.8340     8.1490     8.5820 hc         1 JD1       0.031200
@<TRIPOS>BOND
     1     4     2 1
     2     3     2 1
     3     2     1 1
     4     2     5 1
     5    14    13 ar
     6    14    15 ar
     7    13    11 ar
     8    15    16 ar
     9     5    10 1
    10     5     6 1
    11     8     6 1
    12    11    10 1
    13    11    12 ar
    14    20    21 ar
    15    20    17 ar
    16    16    12 ar
    17    16    17 1
    18    21    22 ar
    19     6     7 1
    20     6     9 1
    21    17    18 ar
    22    22    23 1
    23    22    19 ar
    24    18    19 ar
    25    23    24 1
    26    26    24 1
    27    24    25 1
    28     5    27 1
    29    10    28 1
    30    12    29 1
    31    13    30 1
    32    15    31 1
    33    18    32 1
    34    19    33 1
    35    20    34 1
    36    21    35 1
    37    24    36 1
    38    25    37 1
    39    25    38 1
    40    25    39 1
    41    26    40 1
    42    26    41 1
    43    26    42 1
@<TRIPOS>SUBSTRUCTURE
     1 JD1         1 TEMP              0 ****  ****    0 ROOT
