@<TRIPOS>MOLECULE
molecule
   30    32     1     0     0
SMALL
bcc


@<TRIPOS>ATOM
      1 C01          0.0000     0.0000     0.0000 c3         1 JD7      -0.128400
      2 C02          1.5310     0.0000     0.0000 c3         1 JD7      -0.154400
      3 C03          2.0490     0.0000     1.4420 c3         1 JD7       0.083300
      4 N04          1.3810     1.0750     2.1800 na         1 JD7      -0.196900
      5 C05          1.7420     1.6350     3.3470 cc         1 JD7       0.416400
      6 N06          0.8700     2.5620     3.6510 nd         1 JD7      -0.694000
      7 C07         -0.0700     2.6190     2.6920 cd         1 JD7       0.332200
      8 C08          0.2320     1.6980     1.7670 cc         1 JD7      -0.221900
      9 C09         -0.5070     1.3600     0.4980 c3         1 JD7       0.011900
     10 C10          3.5380     0.2340     1.4460 ca         1 JD7      -0.086300
     11 C11          4.3820    -0.7180     1.9880 ca         1 JD7      -0.106500
     12 C12          5.7460    -0.5120     1.9940 ca         1 JD7      -0.096000
     13 C13          6.2740     0.6620     1.4500 ca         1 JD7      -0.039000
     14 C14          5.4150     1.6180     0.9040 ca         1 JD7      -0.096000
     15 C15          4.0540     1.3950     0.9010 ca         1 JD7      -0.106500
     16 C16          7.6880     0.8840     1.4530 cg         1 JD7       0.229800
     17 N17          8.8070     1.0780     1.4630 n1         1 JD7      -0.348800
     18 H2          -0.0300    -0.9790     0.4630 hc         1 JD7       0.056200
     19 H1          -0.0650     0.0250    -1.0810 hc         1 JD7       0.056200
     20 H3           2.1230    -0.9050     0.0480 hc         1 JD7       0.077700
     21 H4           1.6950     0.8580    -0.6400 hc         1 JD7       0.077700
     22 H5           1.8240    -0.9520     1.9080 h1         1 JD7       0.074700
     23 H6           2.6560     1.2600     3.7890 h5         1 JD7       0.062100
     24 H7          -0.9070     3.3070     2.6740 h4         1 JD7       0.043100
     25 H9          -1.5190     0.9860     0.5940 hc         1 JD7       0.080700
     26 H8          -0.2010     1.7400    -0.4690 hc         1 JD7       0.080700
     27 H10          4.1540    -1.7680     2.1280 ha         1 JD7       0.146000
     28 H11          6.5910    -1.1580     2.2000 ha         1 JD7       0.150000
     29 H12          6.0110     2.2090     0.2190 ha         1 JD7       0.150000
     30 H13          3.5510     1.6510    -0.0250 ha         1 JD7       0.146000
@<TRIPOS>BOND
     1    17    16 3
     2    16    13 1
     3    13    12 ar
     4    13    14 ar
     5    12    11 ar
     6    14    15 ar
     7    11    10 ar
     8    15    10 ar
     9    10     3 1
    10     3     2 1
    11     3     4 1
    12     2     1 1
    13     1     9 1
    14     4     5 1
    15     4     8 1
    16     9     8 1
    17     5     6 2
    18     8     7 2
    19     6     7 1
    20     1    18 1
    21     1    19 1
    22     2    20 1
    23     2    21 1
    24     3    22 1
    25     5    23 1
    26     7    24 1
    27     9    25 1
    28     9    26 1
    29    11    27 1
    30    12    28 1
    31    14    29 1
    32    15    30 1
@<TRIPOS>SUBSTRUCTURE
     1 JD7         1 TEMP              0 ****  ****    0 ROOT
