@<TRIPOS>MOLECULE
JD7
   30    32     1     0     0
SMALL
bcc


@<TRIPOS>ATOM
      1 C01          0.0000     0.0000     0.0000 c3         1 JD7      -0.091400
      2 C02          1.5310     0.0000     0.0000 c3         1 JD7      -0.123400
      3 C03          2.0490     0.0000     1.4420 c3         1 JD7      -0.016700
      4 N04          1.3810     1.0750     2.1800 na         1 JD7       0.264100
      5 C05          1.7420     1.6350     3.3470 cc         1 JD7       0.242400
      6 N06          0.8700     2.5620     3.6510 nd         1 JD7      -0.615000
      7 C07         -0.0700     2.6190     2.6920 cd         1 JD7       0.336200
      8 C08          0.2320     1.6980     1.7670 cc         1 JD7      -0.395900
      9 C09         -0.5070     1.3600     0.4980 c3         1 JD7       0.099900
     10 C10          3.5380     0.2340     1.4460 ca         1 JD7      -0.095300
     11 C11          4.3820    -0.7180     1.9880 ca         1 JD7      -0.077000
     12 C12          5.7460    -0.5120     1.9940 ca         1 JD7      -0.071500
     13 C13          6.2740     0.6620     1.4500 ca         1 JD7       0.003000
     14 C14          5.4150     1.6180     0.9040 ca         1 JD7      -0.071500
     15 C15          4.0540     1.3950     0.9010 ca         1 JD7      -0.077000
     16 C16          7.6880     0.8840     1.4530 cg         1 JD7       0.219800
     17 N17          8.8070     1.0780     1.4630 n1         1 JD7      -0.362800
     18 H2          -0.0300    -0.9790     0.4630 hc         1 JD7       0.034200
     19 H1          -0.0650     0.0250    -1.0810 hc         1 JD7       0.034200
     20 H3           2.1230    -0.9050     0.0480 hc         1 JD7       0.058700
     21 H4           1.6950     0.8580    -0.6400 hc         1 JD7       0.058700
     22 H5           1.8240    -0.9520     1.9080 h1         1 JD7       0.049700
     23 H6           2.6560     1.2600     3.7890 h5         1 JD7       0.019100
     24 H7          -0.9070     3.3070     2.6740 h4         1 JD7       0.005100
     25 H9          -1.5190     0.9860     0.5940 hc         1 JD7       0.045700
     26 H8          -0.2010     1.7400    -0.4690 hc         1 JD7       0.045700
     27 H10          4.1540    -1.7680     2.1280 ha         1 JD7       0.119000
     28 H11          6.5910    -1.1580     2.2000 ha         1 JD7       0.121000
     29 H12          6.0110     2.2090     0.2190 ha         1 JD7       0.121000
     30 H13          3.5510     1.6510    -0.0250 ha         1 JD7       0.119000
@<TRIPOS>BOND
     1     1     2 1   
     2     1     9 1   
     3     1    18 1   
     4     1    19 1   
     5     2     3 1   
     6     2    20 1   
     7     2    21 1   
     8     3     4 1   
     9     3    10 1   
    10     3    22 1   
    11     4     5 1   
    12     4     8 1   
    13     5     6 2   
    14     5    23 1   
    15     6     7 1   
    16     7     8 2   
    17     7    24 1   
    18     8     9 1   
    19     9    25 1   
    20     9    26 1   
    21    10    11 ar  
    22    10    15 ar  
    23    11    12 ar  
    24    11    27 1   
    25    12    13 ar  
    26    12    28 1   
    27    13    14 ar  
    28    13    16 1   
    29    14    15 ar  
    30    14    29 1   
    31    15    30 1   
    32    16    17 3   
@<TRIPOS>SUBSTRUCTURE
     1 JD7         1 TEMP              0 ****  ****    0 ROOT
