@<TRIPOS>MOLECULE
JDB
   40    42     1     0     0
SMALL
bcc


@<TRIPOS>ATOM
      1 OAJ          0.0000     0.0000     0.0000 o          1 JDB      -0.854800
      2 CAI          1.3480     0.0000     0.0000 c          1 JDB       0.975800
      3 OAK          1.9550     0.0000     1.0510 o          1 JDB      -0.854800
      4 C4           2.0880     0.0010    -1.2840 cc         1 JDB      -0.132600
      5 N3           1.4110    -0.1250    -2.4780 ns         1 JDB       0.055900
      6 C2           2.0650    -0.1260    -3.6510 c          1 JDB       0.559500
      7 O2           1.4290    -0.2390    -4.6830 o          1 JDB      -0.760500
      8 N1           3.4020    -0.0070    -3.7170 ns         1 JDB      -0.138500
      9 C6           4.1330     0.1190    -2.5900 c          1 JDB       0.617700
     10 O6           5.3430     0.2270    -2.6460 o          1 JDB      -0.698500
     11 C5           3.4410     0.1290    -1.2950 cd         1 JDB      -0.271400
     12 CAL          4.2130     0.2680    -0.0080 c3         1 JDB       0.023800
     13 CAM          4.6410    -1.1170     0.4820 c3         1 JDB       0.027900
     14 CAN          5.4130    -0.9770     1.7690 ca         1 JDB      -0.039300
     15 CAS          6.7640    -0.8160     1.7260 ca         1 JDB      -0.120000
     16 CAR          7.4870    -0.6860     2.9230 ca         1 JDB       0.004000
     17 CAT          8.8820    -0.5180     2.9180 ca         1 JDB      -0.140000
     18 CAW          9.5510    -0.3940     4.1020 ca         1 JDB       0.126100
     19 OAX         10.9000    -0.2300     4.0950 os         1 JDB      -0.313900
     20 CAY         11.5450    -0.1060     5.3640 c3         1 JDB       0.244700
     21 CAV          8.8670    -0.4330     5.3210 ca         1 JDB      -0.212000
     22 CAU          7.5180    -0.5950     5.3600 ca         1 JDB      -0.045000
     23 CAQ          6.7950    -0.7240     4.1610 ca         1 JDB      -0.076000
     24 CAP          5.4010    -0.8920     4.1650 ca         1 JDB      -0.103000
     25 CAO          4.7330    -1.0100     2.9840 ca         1 JDB      -0.080000
     26 H2           3.8580    -0.0120    -4.6080 hn         1 JDB       0.188500
     27 H4           3.5870     0.7390     0.7400 hc         1 JDB       0.054700
     28 H5           5.0920     0.8780    -0.1780 hc         1 JDB       0.054700
     29 H6           3.7620    -1.7270     0.6520 hc         1 JDB       0.023200
     30 H7           5.2680    -1.5870    -0.2660 hc         1 JDB       0.023200
     31 H8           7.2890    -0.8920     0.7820 ha         1 JDB       0.116000
     32 H9           9.4060    -0.3730     1.9810 ha         1 JDB       0.118000
     33 H10         11.3630    -0.9990     5.9510 h1         1 JDB      -0.008633
     34 H11         11.1510     0.7560     5.8870 h1         1 JDB      -0.008633
     35 H12         12.6110     0.0170     5.2170 h1         1 JDB      -0.008633
     36 H13          9.4190    -0.3320     6.2470 ha         1 JDB       0.108000
     37 H14          7.0010    -0.6230     6.3120 ha         1 JDB       0.097000
     38 H15          4.8580    -0.9190     5.1020 ha         1 JDB       0.099000
     39 H16          3.6570    -1.1340     2.9900 ha         1 JDB       0.138000
     40 H17          0.4140    -0.2160    -2.4700 hn         1 JDB       0.212500
@<TRIPOS>BOND
     1     1     2 1   
     2     2     3 1   
     3     2     4 1   
     4     4     5 1   
     5     4    11 2   
     6     5     6 1   
     7     5    40 1   
     8     6     7 2   
     9     6     8 1   
    10     8     9 1   
    11     8    26 1   
    12     9    10 2   
    13     9    11 1   
    14    11    12 1   
    15    12    13 1   
    16    12    27 1   
    17    12    28 1   
    18    13    14 1   
    19    13    29 1   
    20    13    30 1   
    21    14    15 ar  
    22    14    25 ar  
    23    15    16 ar  
    24    15    31 1   
    25    16    17 ar  
    26    16    23 ar  
    27    17    18 ar  
    28    17    32 1   
    29    18    19 1   
    30    18    21 ar  
    31    19    20 1   
    32    20    33 1   
    33    20    34 1   
    34    20    35 1   
    35    21    22 ar  
    36    21    36 1   
    37    22    23 ar  
    38    22    37 1   
    39    23    24 ar  
    40    24    25 ar  
    41    24    38 1   
    42    25    39 1   
@<TRIPOS>SUBSTRUCTURE
     1 JDB         1 TEMP              0 ****  ****    0 ROOT
