@<TRIPOS>MOLECULE
molecule
   40    42     1     0     0
SMALL
bcc


@<TRIPOS>ATOM
      1 OAJ          0.0000     0.0000     0.0000 o          1 JDB      -0.806800
      2 CAI          1.3480     0.0000     0.0000 c          1 JDB       0.880800
      3 OAK          1.9550     0.0000     1.0510 o          1 JDB      -0.806800
      4 C4           2.0880     0.0010    -1.2840 cc         1 JDB       0.042400
      5 N3           1.4110    -0.1250    -2.4780 ns         1 JDB      -0.427100
      6 C2           2.0650    -0.1260    -3.6510 c          1 JDB       0.798500
      7 O2           1.4290    -0.2390    -4.6830 o          1 JDB      -0.705500
      8 N1           3.4020    -0.0070    -3.7170 ns         1 JDB      -0.566500
      9 C6           4.1330     0.1190    -2.5900 c          1 JDB       0.700700
     10 O6           5.3430     0.2270    -2.6460 o          1 JDB      -0.658500
     11 C5           3.4410     0.1290    -1.2950 cd         1 JDB      -0.281400
     12 CAL          4.2130     0.2680    -0.0080 c3         1 JDB      -0.004200
     13 CAM          4.6410    -1.1170     0.4820 c3         1 JDB      -0.029100
     14 CAN          5.4130    -0.9770     1.7690 ca         1 JDB      -0.039300
     15 CAS          6.7640    -0.8160     1.7260 ca         1 JDB      -0.140000
     16 CAR          7.4870    -0.6860     2.9230 ca         1 JDB      -0.001000
     17 CAT          8.8820    -0.5180     2.9180 ca         1 JDB      -0.156000
     18 CAW          9.5510    -0.3940     4.1020 ca         1 JDB       0.119100
     19 OAX         10.9000    -0.2300     4.0950 os         1 JDB      -0.336900
     20 CAY         11.5450    -0.1060     5.3640 c3         1 JDB       0.132700
     21 CAV          8.8670    -0.4330     5.3210 ca         1 JDB      -0.219000
     22 CAU          7.5180    -0.5950     5.3600 ca         1 JDB      -0.079000
     23 CAQ          6.7950    -0.7240     4.1610 ca         1 JDB      -0.073000
     24 CAP          5.4010    -0.8920     4.1650 ca         1 JDB      -0.129000
     25 CAO          4.7330    -1.0100     2.9840 ca         1 JDB      -0.105000
     26 H2           3.8580    -0.0120    -4.6080 hn         1 JDB       0.341500
     27 H4           3.5870     0.7390     0.7400 hc         1 JDB       0.076200
     28 H5           5.0920     0.8780    -0.1780 hc         1 JDB       0.076200
     29 H6           3.7620    -1.7270     0.6520 hc         1 JDB       0.052200
     30 H7           5.2680    -1.5870    -0.2660 hc         1 JDB       0.052200
     31 H8           7.2890    -0.8920     0.7820 ha         1 JDB       0.138000
     32 H9           9.4060    -0.3730     1.9810 ha         1 JDB       0.143000
     33 H10         11.3630    -0.9990     5.9510 h1         1 JDB       0.034033
     34 H11         11.1510     0.7560     5.8870 h1         1 JDB       0.034033
     35 H12         12.6110     0.0170     5.2170 h1         1 JDB       0.034033
     36 H13          9.4190    -0.3320     6.2470 ha         1 JDB       0.121000
     37 H14          7.0010    -0.6230     6.3120 ha         1 JDB       0.125000
     38 H15          4.8580    -0.9190     5.1020 ha         1 JDB       0.124000
     39 H16          3.6570    -1.1340     2.9900 ha         1 JDB       0.163000
     40 H17          0.4140    -0.2160    -2.4700 hn         1 JDB       0.377500
@<TRIPOS>BOND
     1    20    19 1
     2    19    18 1
     3    18    17 ar
     4    18    21 ar
     5    17    16 ar
     6    16    15 ar
     7    16    23 ar
     8    21    22 ar
     9    15    14 ar
    10    22    23 ar
    11    23    24 ar
    12    14    13 1
    13    14    25 ar
    14    13    12 1
    15    24    25 ar
    16    12    11 1
    17    10     9 2
    18    11     9 1
    19    11     4 2
    20     9     8 1
    21     3     2 1
    22     4     2 1
    23     4     5 1
    24     2     1 1
    25     8     6 1
    26     5     6 1
    27     6     7 2
    28     8    26 1
    29    12    27 1
    30    12    28 1
    31    13    29 1
    32    13    30 1
    33    15    31 1
    34    17    32 1
    35    20    33 1
    36    20    34 1
    37    20    35 1
    38    21    36 1
    39    22    37 1
    40    24    38 1
    41    25    39 1
    42     5    40 1
@<TRIPOS>SUBSTRUCTURE
     1 JDB         1 TEMP              0 ****  ****    0 ROOT
