@<TRIPOS>MOLECULE
molecule
   73    76     1     0     0
SMALL
bcc


@<TRIPOS>ATOM
      1 C1           0.0000     0.0000     0.0000 c3         1 JDC       0.201100
      2 N2           1.4660     0.0000     0.0000 n7         1 JDC      -0.779200
      3 C3           1.9750     0.0000     1.3810 c3         1 JDC       0.090500
      4 C4           1.7080     1.3740     1.9960 c3         1 JDC      -0.066100
      5 C4A          0.2660     1.7590     1.7890 ca         1 JDC      -0.090300
      6 C5          -0.2620     2.7820     2.5600 ca         1 JDC      -0.111000
      7 C6          -1.5770     3.1700     2.4040 ca         1 JDC      -0.154000
      8 C7          -2.3760     2.5320     1.4670 ca         1 JDC       0.106100
      9 O7          -3.6720     2.9080     1.3050 oh         1 JDC      -0.521100
     10 C8          -1.8480     1.5090     0.6960 ca         1 JDC      -0.144000
     11 C8A         -0.5230     1.1230     0.8560 ca         1 JDC      -0.108300
     12 C1A          3.4570    -0.2720     1.3740 c          1 JDC       0.670100
     13 O1           4.0990    -0.1100     0.3580 o          1 JDC      -0.605100
     14 N2A          4.0700    -0.6950     2.4970 ns         1 JDC      -0.561900
     15 C2A          5.5110    -0.9590     2.4900 c3         1 JDC       0.120700
     16 C3A          6.2500     0.2220     3.1230 c3         1 JDC      -0.094700
     17 C3D          7.7540    -0.0540     3.1160 c3         1 JDC      -0.087600
     18 C3B          5.9600     1.4920     2.3210 c3         1 JDC      -0.087600
     19 C4D          5.8010    -2.2290     3.2930 c3         1 JDC       0.145800
     20 N11          5.0050    -3.3410     2.7530 n3         1 JDC      -0.725600
     21 C21          5.5740    -3.8310     1.4920 c3         1 JDC       0.162800
     22 C31          4.6450    -4.8850     0.8860 c3         1 JDC      -0.053700
     23 C34          3.2790    -4.2580     0.6020 c3         1 JDC      -0.087100
     24 C41          4.4790    -6.0420     1.8770 c3         1 JDC      -0.017700
     25 C51          3.9310    -5.4970     3.1980 c3         1 JDC      -0.071400
     26 C61          4.8810    -4.4250     3.7370 c3         1 JDC       0.160800
     27 C4E          5.8370    -6.7040     2.1190 c3         1 JDC      -0.086100
     28 C1C          3.5170    -7.0540     1.3120 ca         1 JDC      -0.049300
     29 C2C          3.8430    -7.7500     0.1630 ca         1 JDC      -0.144000
     30 C3C          2.9580    -8.6820    -0.3570 ca         1 JDC       0.110100
     31 O3C          3.2760    -9.3690    -1.4860 oh         1 JDC      -0.520100
     32 C4C          1.7470    -8.9150     0.2800 ca         1 JDC      -0.172000
     33 C5C          1.4260    -8.2170     1.4280 ca         1 JDC      -0.111000
     34 C6C          2.3130    -7.2910     1.9460 ca         1 JDC      -0.143000
     35 H1          -0.3570     0.1290    -1.0150 h1         1 JDC       0.068700
     36 H2          -0.3570    -0.9440     0.3930 h1         1 JDC       0.068700
     37 H3           1.8000     0.8130    -0.4790 hn         1 JDC       0.372800
     38 H5           1.4620    -0.7610     1.9570 h1         1 JDC       0.079700
     39 H6           2.3370     2.1040     1.5010 hc         1 JDC       0.062200
     40 H7           1.9040     1.3220     3.0600 hc         1 JDC       0.062200
     41 H8           0.3620     3.2810     3.2920 ha         1 JDC       0.133000
     42 H9          -1.9580     4.0270     2.9460 ha         1 JDC       0.139000
     43 H10         -3.7140     3.6510     0.7260 ho         1 JDC       0.419000
     44 H11         -2.4700     1.0090    -0.0370 ha         1 JDC       0.143000
     45 H12          3.5490    -0.7880     3.3460 hn         1 JDC       0.312500
     46 H13          5.8500    -1.0910     1.4700 h1         1 JDC       0.093700
     47 H14          5.9110     0.3550     4.1430 hc         1 JDC       0.044700
     48 H15          8.2930     0.8820     3.2030 hc         1 JDC       0.037867
     49 H16          8.0070    -0.6950     3.9510 hc         1 JDC       0.037867
     50 H17          8.0280    -0.5430     2.1890 hc         1 JDC       0.037867
     51 H18          4.9600     1.8430     2.5480 hc         1 JDC       0.037867
     52 H19          6.0350     1.2760     1.2620 hc         1 JDC       0.037867
     53 H20          6.6800     2.2580     2.5850 hc         1 JDC       0.037867
     54 H21          5.5380    -2.0680     4.3320 h1         1 JDC       0.038700
     55 H22          6.8540    -2.4700     3.2200 h1         1 JDC       0.038700
     56 H24          6.5440    -4.2740     1.6830 h1         1 JDC       0.039700
     57 H25          5.6790    -3.0040     0.8000 h1         1 JDC       0.039700
     58 H26          5.0760    -5.2580    -0.0350 hc         1 JDC       0.055700
     59 H27          2.8540    -3.8820     1.5250 hc         1 JDC       0.043367
     60 H28          3.3960    -3.4410    -0.1000 hc         1 JDC       0.043367
     61 H29          2.6190    -5.0060     0.1780 hc         1 JDC       0.043367
     62 H30          3.8540    -6.3050     3.9160 hc         1 JDC       0.053700
     63 H31          2.9540    -5.0610     3.0300 hc         1 JDC       0.053700
     64 H32          4.4860    -4.0260     4.6630 h1         1 JDC       0.032700
     65 H33          5.8560    -4.8640     3.9130 h1         1 JDC       0.032700
     66 H34          6.3640    -6.8010     1.1780 hc         1 JDC       0.038367
     67 H35          5.6870    -7.6860     2.5520 hc         1 JDC       0.038367
     68 H36          6.4200    -6.0950     2.7990 hc         1 JDC       0.038367
     69 H37          4.7650    -7.5280    -0.3610 ha         1 JDC       0.143000
     70 H38          3.4780   -10.2630    -1.2640 ho         1 JDC       0.418000
     71 H39          1.0520    -9.6410    -0.1250 ha         1 JDC       0.136000
     72 H40          0.4810    -8.4000     1.9260 ha         1 JDC       0.131000
     73 H41          2.0600    -6.7450     2.8470 ha         1 JDC       0.137000
@<TRIPOS>BOND
     1    18    16 1
     2    16    17 1
     3    16    15 1
     4    19    15 1
     5    19    20 1
     6    15    14 1
     7    14    12 1
     8    26    20 1
     9    26    25 1
    10    20    21 1
    11    12     3 1
    12    12    13 2
    13     3     4 1
    14     3     2 1
    15     4     5 1
    16     6     5 ar
    17     6     7 ar
    18     5    11 ar
    19    21    22 1
    20     7     8 ar
    21    25    24 1
    22    11     1 1
    23    11    10 ar
    24     2     1 1
    25     8    10 ar
    26     8     9 1
    27    27    24 1
    28    24    22 1
    29    24    28 1
    30    22    23 1
    31    28    34 ar
    32    28    29 ar
    33    34    33 ar
    34    29    30 ar
    35    33    32 ar
    36    30    32 ar
    37    30    31 1
    38     1    35 1
    39     1    36 1
    40     2    37 1
    41     3    38 1
    42     4    39 1
    43     4    40 1
    44     6    41 1
    45     7    42 1
    46     9    43 1
    47    10    44 1
    48    14    45 1
    49    15    46 1
    50    16    47 1
    51    17    48 1
    52    17    49 1
    53    17    50 1
    54    18    51 1
    55    18    52 1
    56    18    53 1
    57    19    54 1
    58    19    55 1
    59    21    56 1
    60    21    57 1
    61    22    58 1
    62    23    59 1
    63    23    60 1
    64    23    61 1
    65    25    62 1
    66    25    63 1
    67    26    64 1
    68    26    65 1
    69    27    66 1
    70    27    67 1
    71    27    68 1
    72    29    69 1
    73    31    70 1
    74    32    71 1
    75    33    72 1
    76    34    73 1
@<TRIPOS>SUBSTRUCTURE
     1 JDC         1 TEMP              0 ****  ****    0 ROOT
