@<TRIPOS>MOLECULE
JDC
   73    76     1     0     0
SMALL
bcc


@<TRIPOS>ATOM
      1 C1           0.0000     0.0000     0.0000 c3         1 JDC       0.201100
      2 N2           1.4660     0.0000     0.0000 n7         1 JDC      -0.550200
      3 C3           1.9750     0.0000     1.3810 c3         1 JDC       0.043500
      4 C4           1.7080     1.3740     1.9960 c3         1 JDC       0.008900
      5 C4A          0.2660     1.7590     1.7890 ca         1 JDC      -0.103300
      6 C5          -0.2620     2.7820     2.5600 ca         1 JDC      -0.078000
      7 C6          -1.5770     3.1700     2.4040 ca         1 JDC      -0.139000
      8 C7          -2.3760     2.5320     1.4670 ca         1 JDC       0.124100
      9 O7          -3.6720     2.9080     1.3050 oh         1 JDC      -0.499100
     10 C8          -1.8480     1.5090     0.6960 ca         1 JDC      -0.127000
     11 C8A         -0.5230     1.1230     0.8560 ca         1 JDC      -0.101300
     12 C1A          3.4570    -0.2720     1.3740 c          1 JDC       0.580100
     13 O1           4.0990    -0.1100     0.3580 o          1 JDC      -0.643100
     14 N2A          4.0700    -0.6950     2.4970 ns         1 JDC      -0.162900
     15 C2A          5.5110    -0.9590     2.4900 c3         1 JDC       0.005700
     16 C3A          6.2500     0.2220     3.1230 c3         1 JDC      -0.067700
     17 C3D          7.7540    -0.0540     3.1160 c3         1 JDC      -0.001100
     18 C3B          5.9600     1.4920     2.3210 c3         1 JDC      -0.001100
     19 C4D          5.8010    -2.2290     3.2930 c3         1 JDC       0.129800
     20 N11          5.0050    -3.3410     2.7530 n3         1 JDC      -0.536600
     21 C21          5.5740    -3.8310     1.4920 c3         1 JDC       0.140800
     22 C31          4.6450    -4.8850     0.8860 c3         1 JDC      -0.034700
     23 C34          3.2790    -4.2580     0.6020 c3         1 JDC      -0.017100
     24 C41          4.4790    -6.0420     1.8770 c3         1 JDC      -0.007700
     25 C51          3.9310    -5.4970     3.1980 c3         1 JDC      -0.036400
     26 C61          4.8810    -4.4250     3.7370 c3         1 JDC       0.147800
     27 C4E          5.8370    -6.7040     2.1190 c3         1 JDC      -0.010100
     28 C1C          3.5170    -7.0540     1.3120 ca         1 JDC      -0.046300
     29 C2C          3.8430    -7.7500     0.1630 ca         1 JDC      -0.135000
     30 C3C          2.9580    -8.6820    -0.3570 ca         1 JDC       0.131100
     31 O3C          3.2760    -9.3690    -1.4860 oh         1 JDC      -0.499100
     32 C4C          1.7470    -8.9150     0.2800 ca         1 JDC      -0.159000
     33 C5C          1.4260    -8.2170     1.4280 ca         1 JDC      -0.073000
     34 C6C          2.3130    -7.2910     1.9460 ca         1 JDC      -0.136000
     35 H1          -0.3570     0.1290    -1.0150 h1         1 JDC       0.031700
     36 H2          -0.3570    -0.9440     0.3930 h1         1 JDC       0.031700
     37 H3           1.8000     0.8130    -0.4790 hn         1 JDC       0.273800
     38 H5           1.4620    -0.7610     1.9570 h1         1 JDC       0.048700
     39 H6           2.3370     2.1040     1.5010 hc         1 JDC       0.031200
     40 H7           1.9040     1.3220     3.0600 hc         1 JDC       0.031200
     41 H8           0.3620     3.2810     3.2920 ha         1 JDC       0.105000
     42 H9          -1.9580     4.0270     2.9460 ha         1 JDC       0.113000
     43 H10         -3.7140     3.6510     0.7260 ho         1 JDC       0.402000
     44 H11         -2.4700     1.0090    -0.0370 ha         1 JDC       0.118000
     45 H12          3.5490    -0.7880     3.3460 hn         1 JDC       0.171500
     46 H13          5.8500    -1.0910     1.4700 h1         1 JDC       0.077700
     47 H14          5.9110     0.3550     4.1430 hc         1 JDC       0.021700
     48 H15          8.2930     0.8820     3.2030 hc         1 JDC       0.008533
     49 H16          8.0070    -0.6950     3.9510 hc         1 JDC       0.008533
     50 H17          8.0280    -0.5430     2.1890 hc         1 JDC       0.008533
     51 H18          4.9600     1.8430     2.5480 hc         1 JDC       0.008533
     52 H19          6.0350     1.2760     1.2620 hc         1 JDC       0.008533
     53 H20          6.6800     2.2580     2.5850 hc         1 JDC       0.008533
     54 H21          5.5380    -2.0680     4.3320 h1         1 JDC       0.018700
     55 H22          6.8540    -2.4700     3.2200 h1         1 JDC       0.018700
     56 H24          6.5440    -4.2740     1.6830 h1         1 JDC       0.020200
     57 H25          5.6790    -3.0040     0.8000 h1         1 JDC       0.020200
     58 H26          5.0760    -5.2580    -0.0350 hc         1 JDC       0.034700
     59 H27          2.8540    -3.8820     1.5250 hc         1 JDC       0.016700
     60 H28          3.3960    -3.4410    -0.1000 hc         1 JDC       0.016700
     61 H29          2.6190    -5.0060     0.1780 hc         1 JDC       0.016700
     62 H30          3.8540    -6.3050     3.9160 hc         1 JDC       0.032700
     63 H31          2.9540    -5.0610     3.0300 hc         1 JDC       0.032700
     64 H32          4.4860    -4.0260     4.6630 h1         1 JDC       0.011200
     65 H33          5.8560    -4.8640     3.9130 h1         1 JDC       0.011200
     66 H34          6.3640    -6.8010     1.1780 hc         1 JDC       0.011700
     67 H35          5.6870    -7.6860     2.5520 hc         1 JDC       0.011700
     68 H36          6.4200    -6.0950     2.7990 hc         1 JDC       0.011700
     69 H37          4.7650    -7.5280    -0.3610 ha         1 JDC       0.122000
     70 H38          3.4780   -10.2630    -1.2640 ho         1 JDC       0.401000
     71 H39          1.0520    -9.6410    -0.1250 ha         1 JDC       0.111000
     72 H40          0.4810    -8.4000     1.9260 ha         1 JDC       0.101000
     73 H41          2.0600    -6.7450     2.8470 ha         1 JDC       0.120000
@<TRIPOS>BOND
     1     1     2 1   
     2     1    11 1   
     3     1    35 1   
     4     1    36 1   
     5     2     3 1   
     6     2    37 1   
     7     3     4 1   
     8     3    12 1   
     9     3    38 1   
    10     4     5 1   
    11     4    39 1   
    12     4    40 1   
    13     5     6 ar  
    14     5    11 ar  
    15     6     7 ar  
    16     6    41 1   
    17     7     8 ar  
    18     7    42 1   
    19     8     9 1   
    20     8    10 ar  
    21     9    43 1   
    22    10    11 ar  
    23    10    44 1   
    24    12    13 2   
    25    12    14 1   
    26    14    15 1   
    27    14    45 1   
    28    15    16 1   
    29    15    19 1   
    30    15    46 1   
    31    16    17 1   
    32    16    18 1   
    33    16    47 1   
    34    17    48 1   
    35    17    49 1   
    36    17    50 1   
    37    18    51 1   
    38    18    52 1   
    39    18    53 1   
    40    19    20 1   
    41    19    54 1   
    42    19    55 1   
    43    20    21 1   
    44    20    26 1   
    45    21    22 1   
    46    21    56 1   
    47    21    57 1   
    48    22    23 1   
    49    22    24 1   
    50    22    58 1   
    51    23    59 1   
    52    23    60 1   
    53    23    61 1   
    54    24    25 1   
    55    24    27 1   
    56    24    28 1   
    57    25    26 1   
    58    25    62 1   
    59    25    63 1   
    60    26    64 1   
    61    26    65 1   
    62    27    66 1   
    63    27    67 1   
    64    27    68 1   
    65    28    29 ar  
    66    28    34 ar  
    67    29    30 ar  
    68    29    69 1   
    69    30    31 1   
    70    30    32 ar  
    71    31    70 1   
    72    32    33 ar  
    73    32    71 1   
    74    33    34 ar  
    75    33    72 1   
    76    34    73 1   
@<TRIPOS>SUBSTRUCTURE
     1 JDC         1 TEMP              0 ****  ****    0 ROOT
