@<TRIPOS>MOLECULE
molecule
   60    63     1     0     0
SMALL
bcc


@<TRIPOS>ATOM
      1 O1           0.0000     0.0000     0.0000 o          1 JDD      -0.591100
      2 C13          1.2130     0.0000     0.0000 c          1 JDD       0.679100
      3 C14          1.9670     0.0000     1.3050 c3         1 JDD      -0.118100
      4 C15          0.9890    -0.0010     2.4500 ca         1 JDD      -0.076300
      5 C20          0.5400    -1.1990     2.9750 ca         1 JDD      -0.091000
      6 C19         -0.3570    -1.2030     4.0250 ca         1 JDD      -0.142500
      7 C18         -0.8080    -0.0020     4.5540 ca         1 JDD       0.038800
      8 N4          -1.7200    -0.0030     5.6210 na         1 JDD       0.152300
      9 N5          -2.2540    -1.1350     6.2480 nc         1 JDD      -0.507800
     10 C23         -3.0620    -0.7350     7.1950 cd         1 JDD       0.337200
     11 C22         -3.0690     0.6640     7.2040 cd         1 JDD      -0.348300
     12 C21         -2.2320     1.0900     6.2300 cc         1 JDD      -0.108300
     13 C17         -0.3580     1.2000     4.0260 ca         1 JDD      -0.142500
     14 C16          0.5440     1.1970     2.9790 ca         1 JDD      -0.091000
     15 N1           1.8860    -0.0050    -1.1680 n          1 JDD      -0.478800
     16 C2           3.3490     0.0840    -1.1700 c3         1 JDD       0.014000
     17 C1           3.9320    -1.2100    -0.6660 c          1 JDD       0.628100
     18 O            3.2020    -2.0740    -0.2280 o          1 JDD      -0.592100
     19 N            5.2640    -1.4090    -0.7030 ns         1 JDD      -0.587900
     20 C            5.8320    -2.6670    -0.2130 c3         1 JDD       0.089300
     21 C3           1.1560    -0.1000    -2.4340 c3         1 JDD       0.124700
     22 C7           0.2950    -1.3660    -2.4350 c3         1 JDD      -0.100400
     23 C6           1.2030    -2.5940    -2.3280 c3         1 JDD       0.153800
     24 N2           2.1360    -2.6150    -3.4620 nh         1 JDD      -0.696300
     25 C5           3.0060    -1.4310    -3.4550 c3         1 JDD       0.153800
     26 C4           2.1510    -0.1680    -3.5950 c3         1 JDD      -0.100400
     27 C8           2.8870    -3.7840    -3.4670 ca         1 JDD       0.619200
     28 N3           2.6970    -4.6900    -2.5210 nb         1 JDD      -0.723000
     29 C12          3.3890    -5.8140    -2.4910 ca         1 JDD       0.445200
     30 C11          4.3420    -6.0850    -3.4510 ca         1 JDD      -0.290300
     31 C10          4.5720    -5.1600    -4.4610 ca         1 JDD      -0.078000
     32 C9           3.8270    -3.9940    -4.4700 ca         1 JDD      -0.276300
     33 H141         2.5890     0.8850     1.3630 hc         1 JDD       0.075700
     34 H142         2.5900    -0.8840     1.3620 hc         1 JDD       0.075700
     35 H20          0.8930    -2.1360     2.5610 ha         1 JDD       0.138500
     36 H16          0.8960     2.1350     2.5670 ha         1 JDD       0.138500
     37 H19         -0.7080    -2.1420     4.4350 ha         1 JDD       0.146000
     38 H17         -0.7070     2.1390     4.4380 ha         1 JDD       0.146000
     39 H21         -2.0170     2.1220     5.9790 h4         1 JDD       0.172000
     40 H23         -3.6290    -1.3760     7.8590 h4         1 JDD       0.049100
     41 H22         -3.6390     1.2950     7.8750 ha         1 JDD       0.155000
     42 H21C         3.6980     0.2690    -2.1790 h1         1 JDD       0.073200
     43 H22C         3.6620     0.8960    -0.5250 h1         1 JDD       0.073200
     44 H3           0.5190     0.7680    -2.5570 h1         1 JDD       0.064700
     45 H            5.8660    -0.6960    -1.0640 hn         1 JDD       0.312500
     46 HC1          6.3800    -2.4840     0.7030 h1         1 JDD       0.049700
     47 HC2          6.5020    -3.0760    -0.9590 h1         1 JDD       0.049700
     48 HC3          5.0330    -3.3730    -0.0200 h1         1 JDD       0.049700
     49 H71C        -0.2730    -1.4160    -3.3560 hc         1 JDD       0.065700
     50 H72C        -0.3810    -1.3430    -1.5880 hc         1 JDD       0.065700
     51 H41C         2.7920     0.7050    -3.5720 hc         1 JDD       0.065700
     52 H42C         1.6100    -0.2020    -4.5330 hc         1 JDD       0.065700
     53 H61C         1.7630    -2.5480    -1.4020 h1         1 JDD       0.060700
     54 H62C         0.5970    -3.4920    -2.3450 h1         1 JDD       0.060700
     55 H51C         3.5540    -1.3920    -2.5210 h1         1 JDD       0.060700
     56 H52C         3.6990    -1.4890    -4.2850 h1         1 JDD       0.060700
     57 H9           3.9810    -3.2510    -5.2430 ha         1 JDD       0.139000
     58 H12          3.2060    -6.5330    -1.7010 h4         1 JDD       0.022100
     59 H11          4.9060    -7.0090    -3.4170 ha         1 JDD       0.135000
     60 H10          5.3130    -5.3500    -5.2280 ha         1 JDD       0.134000
@<TRIPOS>BOND
     1     1     2 2
     2     2     3 1
     3     2    15 1
     4     3     4 1
     5     4     5 ar
     6     4    14 ar
     7     5     6 ar
     8     6     7 ar
     9     7     8 1
    10     7    13 ar
    11     8     9 1
    12     8    12 1
    13     9    10 2
    14    10    11 1
    15    11    12 2
    16    13    14 ar
    17    15    16 1
    18    15    21 1
    19    16    17 1
    20    17    18 2
    21    17    19 1
    22    19    20 1
    23    21    22 1
    24    21    26 1
    25    22    23 1
    26    23    24 1
    27    24    25 1
    28    24    27 1
    29    25    26 1
    30    27    28 ar
    31    27    32 ar
    32    28    29 ar
    33    29    30 ar
    34    30    31 ar
    35    31    32 ar
    36     3    33 1
    37     3    34 1
    38     5    35 1
    39    14    36 1
    40     6    37 1
    41    13    38 1
    42    12    39 1
    43    10    40 1
    44    11    41 1
    45    16    42 1
    46    16    43 1
    47    21    44 1
    48    19    45 1
    49    20    46 1
    50    20    47 1
    51    20    48 1
    52    22    49 1
    53    22    50 1
    54    26    51 1
    55    26    52 1
    56    23    53 1
    57    23    54 1
    58    25    55 1
    59    25    56 1
    60    32    57 1
    61    29    58 1
    62    30    59 1
    63    31    60 1
@<TRIPOS>SUBSTRUCTURE
     1 JDD         1 TEMP              0 ****  ****    0 ROOT
