@<TRIPOS>MOLECULE
molecule
   34    35     1     0     0
SMALL
bcc


@<TRIPOS>ATOM
      1 OAJ          0.0000     0.0000     0.0000 o          1 JDM      -0.805300
      2 CAI          1.3470     0.0000     0.0000 c          1 JDM       0.879800
      3 OAK          1.9540     0.0000     1.0510 o          1 JDM      -0.805300
      4 C4           2.0880    -0.0010    -1.2840 cc         1 JDM       0.044400
      5 N3           1.4120     0.1330    -2.4770 ns         1 JDM      -0.427100
      6 C2           2.0650     0.1340    -3.6510 c          1 JDM       0.798500
      7 O2           1.4300     0.2550    -4.6820 o          1 JDM      -0.704500
      8 N1           3.4020     0.0070    -3.7170 ns         1 JDM      -0.567500
      9 C6           4.1320    -0.1290    -2.5900 c          1 JDM       0.703700
     10 O6           5.3410    -0.2440    -2.6460 o          1 JDM      -0.666500
     11 C5           3.4400    -0.1280    -1.2950 cd         1 JDM      -0.285400
     12 CAL          4.2120    -0.2710    -0.0080 c3         1 JDM      -0.001200
     13 CAM          4.5980     1.1150     0.5120 c3         1 JDM      -0.030100
     14 CAN          5.4620     0.9690     1.7390 ca         1 JDM      -0.058300
     15 CAO          4.8800     0.9220     2.9910 ca         1 JDM      -0.112000
     16 CAP          5.6720     0.7890     4.1170 ca         1 JDM      -0.140000
     17 CAQ          7.0450     0.7020     3.9890 ca         1 JDM      -0.154000
     18 CAR          7.6280     0.7490     2.7350 ca         1 JDM      -0.115000
     19 CAS          6.8340     0.8780     1.6100 ca         1 JDM      -0.091300
     20 CAT          7.4690     0.9230     0.2430 c3         1 JDM       0.182700
     21 OAU          8.8820     0.7560     0.3680 oh         1 JDM      -0.624800
     22 H2           0.4160     0.2310    -2.4690 hn         1 JDM       0.377500
     23 H3           3.8590     0.0120    -4.6070 hn         1 JDM       0.341500
     24 H4           5.1090    -0.8520    -0.1880 hc         1 JDM       0.073700
     25 H5           3.5970    -0.7740     0.7280 hc         1 JDM       0.073700
     26 H6           3.7020     1.6680     0.7650 hc         1 JDM       0.051700
     27 H7           5.1470     1.6480    -0.2550 hc         1 JDM       0.051700
     28 H8           3.8040     0.9900     3.0920 ha         1 JDM       0.159000
     29 H9           5.2160     0.7520     5.0990 ha         1 JDM       0.117000
     30 H10          7.6660     0.6000     4.8710 ha         1 JDM       0.112000
     31 H11          8.7040     0.6790     2.6350 ha         1 JDM       0.137000
     32 H12          7.0630     0.1280    -0.3700 h1         1 JDM       0.044700
     33 H13          7.2580     1.8790    -0.2210 h1         1 JDM       0.044700
     34 H14          9.2880     0.8740    -0.4740 ho         1 JDM       0.396000
@<TRIPOS>BOND
     1     7     6 2
     2     5     6 1
     3     5     4 1
     4     6     8 1
     5     3     2 1
     6     1     2 1
     7     8     9 1
     8     4     2 1
     9     4    11 2
    10     9    11 1
    11     9    10 2
    12    11    12 1
    13    12    13 1
    14    13    14 1
    15    20    21 1
    16    20    19 1
    17    14    19 ar
    18    14    15 ar
    19    19    18 ar
    20    15    16 ar
    21    18    17 ar
    22    16    17 ar
    23     5    22 1
    24     8    23 1
    25    12    24 1
    26    12    25 1
    27    13    26 1
    28    13    27 1
    29    15    28 1
    30    16    29 1
    31    17    30 1
    32    18    31 1
    33    20    32 1
    34    20    33 1
    35    21    34 1
@<TRIPOS>SUBSTRUCTURE
     1 JDM         1 TEMP              0 ****  ****    0 ROOT
