@<TRIPOS>MOLECULE
JDM
   34    35     1     0     0
SMALL
bcc


@<TRIPOS>ATOM
      1 OAJ          0.0000     0.0000     0.0000 o          1 JDM      -0.853300
      2 CAI          1.3470     0.0000     0.0000 c          1 JDM       0.974800
      3 OAK          1.9540     0.0000     1.0510 o          1 JDM      -0.853300
      4 C4           2.0880    -0.0010    -1.2840 cc         1 JDM      -0.129600
      5 N3           1.4120     0.1330    -2.4770 ns         1 JDM       0.056900
      6 C2           2.0650     0.1340    -3.6510 c          1 JDM       0.559500
      7 O2           1.4300     0.2550    -4.6820 o          1 JDM      -0.759500
      8 N1           3.4020     0.0070    -3.7170 ns         1 JDM      -0.138500
      9 C6           4.1320    -0.1290    -2.5900 c          1 JDM       0.621700
     10 O6           5.3410    -0.2440    -2.6460 o          1 JDM      -0.707500
     11 C5           3.4400    -0.1280    -1.2950 cd         1 JDM      -0.275400
     12 CAL          4.2120    -0.2710    -0.0080 c3         1 JDM       0.027800
     13 CAM          4.5980     1.1150     0.5120 c3         1 JDM       0.022900
     14 CAN          5.4620     0.9690     1.7390 ca         1 JDM      -0.058300
     15 CAO          4.8800     0.9220     2.9910 ca         1 JDM      -0.087000
     16 CAP          5.6720     0.7890     4.1170 ca         1 JDM      -0.117000
     17 CAQ          7.0450     0.7020     3.9890 ca         1 JDM      -0.130000
     18 CAR          7.6280     0.7490     2.7350 ca         1 JDM      -0.096000
     19 CAS          6.8340     0.8780     1.6100 ca         1 JDM      -0.106300
     20 CAT          7.4690     0.9230     0.2430 c3         1 JDM       0.267700
     21 OAU          8.8820     0.7560     0.3680 oh         1 JDM      -0.605800
     22 H2           0.4160     0.2310    -2.4690 hn         1 JDM       0.212500
     23 H3           3.8590     0.0120    -4.6070 hn         1 JDM       0.187500
     24 H4           5.1090    -0.8520    -0.1880 hc         1 JDM       0.053200
     25 H5           3.5970    -0.7740     0.7280 hc         1 JDM       0.053200
     26 H6           3.7020     1.6680     0.7650 hc         1 JDM       0.025700
     27 H7           5.1470     1.6480    -0.2550 hc         1 JDM       0.025700
     28 H8           3.8040     0.9900     3.0920 ha         1 JDM       0.134000
     29 H9           5.2160     0.7520     5.0990 ha         1 JDM       0.092000
     30 H10          7.6660     0.6000     4.8710 ha         1 JDM       0.088000
     31 H11          8.7040     0.6790     2.6350 ha         1 JDM       0.113000
     32 H12          7.0630     0.1280    -0.3700 h1         1 JDM       0.010200
     33 H13          7.2580     1.8790    -0.2210 h1         1 JDM       0.010200
     34 H14          9.2880     0.8740    -0.4740 ho         1 JDM       0.383000
@<TRIPOS>BOND
     1     1     2 1   
     2     2     3 1   
     3     2     4 1   
     4     4     5 1   
     5     4    11 2   
     6     5     6 1   
     7     5    22 1   
     8     6     7 2   
     9     6     8 1   
    10     8     9 1   
    11     8    23 1   
    12     9    10 2   
    13     9    11 1   
    14    11    12 1   
    15    12    13 1   
    16    12    24 1   
    17    12    25 1   
    18    13    14 1   
    19    13    26 1   
    20    13    27 1   
    21    14    15 ar  
    22    14    19 ar  
    23    15    16 ar  
    24    15    28 1   
    25    16    17 ar  
    26    16    29 1   
    27    17    18 ar  
    28    17    30 1   
    29    18    19 ar  
    30    18    31 1   
    31    19    20 1   
    32    20    21 1   
    33    20    32 1   
    34    20    33 1   
    35    21    34 1   
@<TRIPOS>SUBSTRUCTURE
     1 JDM         1 TEMP              0 ****  ****    0 ROOT
