@<TRIPOS>MOLECULE
molecule
   55    59     1     0     0
SMALL
bcc


@<TRIPOS>ATOM
      1 C22          0.0000     0.0000     0.0000 ca         1 JDP      -0.126000
      2 C21          1.3820     0.0000     0.0000 ca         1 JDP      -0.108000
      3 O01         -4.7510    -3.9140    10.6350 o          1 JDP      -0.435100
      4 C03         -3.5810    -3.6740     8.6300 ca         1 JDP      -0.168600
      5 C04         -2.9540    -4.3050     7.5580 ca         1 JDP      -0.158000
      6 C05         -2.3730    -3.5530     6.5520 ca         1 JDP      -0.168000
      7 C06         -2.4040    -2.1740     6.5900 ca         1 JDP      -0.014000
      8 C07         -3.0220    -1.5160     7.6470 ca         1 JDP      -0.015200
      9 C08         -3.6220    -2.2660     8.6740 ca         1 JDP      -0.011800
     10 C09         -4.1810    -1.2960     9.6130 cc         1 JDP      -0.226200
     11 C10         -3.9090    -0.0730     9.1260 cd         1 JDP       0.047700
     12 C11         -4.3040     1.2260     9.7790 c3         1 JDP      -0.031900
     13 N12         -3.2080    -0.1830     7.9550 na         1 JDP      -0.065200
     14 C13         -2.7660     0.8870     7.1820 ca         1 JDP       0.813500
     15 N14         -2.1160     0.6430     6.0550 nb         1 JDP      -0.842000
     16 C15         -1.6790     1.6440     5.2980 ca         1 JDP       0.765200
     17 N16         -0.9980     1.3880     4.1190 nu         1 JDP      -0.893900
     18 C17         -0.7540     0.0060     3.6990 c3         1 JDP       0.289100
     19 C18         -0.0010     0.0030     2.3940 ca         1 JDP      -0.137300
     20 C19          1.3820     0.0030     2.3940 ca         1 JDP      -0.111500
     21 C20          2.0730     0.0000     1.1970 ca         1 JDP      -0.126000
     22 C23         -0.6910     0.0030     1.1970 ca         1 JDP      -0.111500
     23 C24         -1.9190     2.9590     5.7090 ca         1 JDP      -0.437900
     24 C25         -1.4260     4.1020     4.8640 c3         1 JDP       0.198700
     25 O26         -2.0700     5.3150     5.2530 os         1 JDP      -0.403600
     26 C27         -1.9980     5.5660     6.6620 c3         1 JDP       0.133400
     27 C28         -2.8950     4.5580     7.3830 c3         1 JDP      -0.166700
     28 C29         -2.5990     3.1680     6.8850 ca         1 JDP       0.539600
     29 N30         -3.0100     2.1220     7.5910 nb         1 JDP      -0.807000
     30 N31         -4.1580    -5.8170     9.6540 nz         1 JDP      -0.675400
     31 H1          -0.5420    -0.0000    -0.9380 ha         1 JDP       0.139500
     32 H2           1.9240    -0.0020    -0.9380 ha         1 JDP       0.141000
     33 H3          -2.7580    -5.3260     7.2540 ha         1 JDP       0.139000
     34 H4          -2.0110    -4.0620     5.6670 ha         1 JDP       0.157000
     35 H5          -1.4250    -1.9730     6.1710 ha         1 JDP       0.173000
     36 H6          -4.5720    -1.5170    10.5990 ha         1 JDP       0.184000
     37 H7          -3.4150     1.8050     9.9990 hc         1 JDP       0.071367
     38 H8          -4.8380     1.0210    10.6990 hc         1 JDP       0.071367
     39 H9          -4.9430     1.7880     9.1080 hc         1 JDP       0.071367
     40 H10         -0.6660     2.1480     3.5590 hn         1 JDP       0.464800
     41 H11         -1.7000    -0.5050     3.5700 h1         1 JDP       0.052200
     42 H12         -0.1680    -0.5030     4.4550 h1         1 JDP       0.052200
     43 H13          1.9230     0.0030     3.3320 ha         1 JDP       0.133500
     44 H14          3.1560    -0.0000     1.1980 ha         1 JDP       0.139500
     45 H15         -1.7750     0.0030     1.1960 ha         1 JDP       0.133500
     46 H16         -1.6450     3.8980     3.8230 h1         1 JDP       0.057700
     47 H17         -0.3560     4.2080     4.9960 h1         1 JDP       0.057700
     48 H18         -0.9760     5.4270     6.9920 h1         1 JDP       0.063200
     49 H19         -2.3620     6.5670     6.8600 h1         1 JDP       0.063200
     50 H20         -2.6840     4.6010     8.4440 hc         1 JDP       0.082200
     51 H21         -3.9300     4.7940     7.1630 hc         1 JDP       0.082200
     52 H22         -4.6330    -6.1960    10.4500 hn         1 JDP       0.472467
     53 H23         -4.5990    -6.1420     8.8170 hn         1 JDP       0.472467
     54 H313        -3.2020    -6.1130     9.6640 hn         1 JDP       0.472467
     55 C02         -4.2010    -4.4710     9.7040 c          1 JDP       0.504700
@<TRIPOS>BOND
     1     3    55 2
     2    30    55 1
     3    55     4 1
     4    10     9 1
     5    10    11 2
     6     4     9 ar
     7     4     5 ar
     8     9     8 ar
     9    12    11 1
    10     5     6 ar
    11    11    13 1
    12     8    13 1
    13     8     7 ar
    14    13    14 1
    15     6     7 ar
    16    14    29 ar
    17    14    15 ar
    18    29    28 ar
    19    15    16 ar
    20    28    27 1
    21    28    23 ar
    22    27    26 1
    23    16    23 ar
    24    16    17 1
    25     1     2 ar
    26     1    22 ar
    27    23    24 1
    28     2    21 ar
    29    22    19 ar
    30    17    18 1
    31    26    25 1
    32    21    20 ar
    33    19    20 ar
    34    19    18 1
    35    24    25 1
    36     1    31 1
    37     2    32 1
    38     5    33 1
    39     6    34 1
    40     7    35 1
    41    10    36 1
    42    12    37 1
    43    12    38 1
    44    12    39 1
    45    17    40 1
    46    18    41 1
    47    18    42 1
    48    20    43 1
    49    21    44 1
    50    22    45 1
    51    24    46 1
    52    24    47 1
    53    26    48 1
    54    26    49 1
    55    27    50 1
    56    27    51 1
    57    30    52 1
    58    30    53 1
    59    54    30 1
@<TRIPOS>SUBSTRUCTURE
     1 JDP         1 TEMP              0 ****  ****    0 ROOT
