@<TRIPOS>MOLECULE
JDR
   37    38     1     0     0
SMALL
bcc


@<TRIPOS>ATOM
      1 N1           0.0000     0.0000     0.0000 nb         1 JDR      -0.694000
      2 C2           1.3290     0.0000     0.0000 ca         1 JDR       0.822300
      3 N3           2.0330     0.0000     1.1240 nb         1 JDR      -0.698000
      4 C4           1.4290     0.0010     2.3060 ca         1 JDR       0.594200
      5 C5           0.0150     0.0020     2.3480 ca         1 JDR      -0.543200
      6 C6          -0.6840     0.0010     1.1290 ca         1 JDR       0.534300
      7 N7           2.1670     0.0010     3.4700 nu         1 JDR      -0.505900
      8 C8           4.1900    -0.0010     4.8090 ca         1 JDR      -0.018300
      9 C9           4.4460    -1.1980     5.4500 ca         1 JDR      -0.091500
     10 C10          4.9650    -1.1980     6.7320 ca         1 JDR       0.010500
     11 C11          5.2290    -0.0000     7.3710 ca         1 JDR      -0.225500
     12 C12          4.9740     1.1960     6.7290 ca         1 JDR       0.010500
     13 C13          4.4540     1.1960     5.4470 ca         1 JDR      -0.091500
     14 S14          5.8900    -0.0010     9.0050 sy         1 JDR       0.938200
     15 O15          5.5400     1.2510     9.5780 o          1 JDR      -0.493800
     16 O16          5.5310    -1.2480     9.5820 o          1 JDR      -0.493800
     17 N17          7.5400    -0.0070     8.8660 nz         1 JDR      -0.131500
     18 C18         -0.6990     0.0020     3.6240 c          1 JDR       0.683500
     19 O19         -1.9120     0.0030     3.6400 o          1 JDR      -0.541100
     20 Cl20        -2.4200     0.0020     1.1090 cl         1 JDR       0.014000
     21 S21          2.1820    -0.0010    -1.5410 ss         1 JDR      -0.365400
     22 C22          0.7740    -0.0020    -2.6790 c3         1 JDR       0.120000
     23 C23          3.6300    -0.0010     3.4090 c3         1 JDR       0.209100
     24 HN7          1.7020     0.0250     4.3560 hn         1 JDR       0.305800
     25 H9           4.2760    -2.1350     4.9350 ha         1 JDR       0.138000
     26 H10          5.1400    -2.1350     7.2460 ha         1 JDR       0.130000
     27 H12          5.1520     2.1340     7.2400 ha         1 JDR       0.130000
     28 H13          4.2820     2.1340     4.9330 ha         1 JDR       0.138000
     29 HN17         7.8360     0.8080     8.3660 hn         1 JDR       0.314467
     30 HN1A         7.8300    -0.8270     8.3690 hn         1 JDR       0.314467
     31 H18         -0.1440    -0.0240     4.5540 h4         1 JDR      -0.053800
     32 H22          0.1720     0.8830    -2.5100 h1         1 JDR       0.045700
     33 H22A         0.1720    -0.8860    -2.5090 h1         1 JDR       0.045700
     34 H22B         1.1350    -0.0030    -3.7010 h1         1 JDR       0.045700
     35 H23          3.9710     0.8830     2.8830 h1         1 JDR       0.044200
     36 H23A         3.9690    -0.8870     2.8850 h1         1 JDR       0.044200
     37 H173         7.9520     0.0050     9.7780 hn         1 JDR       0.314467
@<TRIPOS>BOND
     1     1     2 ar  
     2     1     6 ar  
     3     2     3 ar  
     4     2    21 1   
     5     3     4 ar  
     6     4     5 ar  
     7     4     7 1   
     8     5     6 ar  
     9     5    18 1   
    10     6    20 1   
    11     7    23 1   
    12     7    24 1   
    13     8     9 ar  
    14     8    13 ar  
    15     8    23 1   
    16     9    10 ar  
    17     9    25 1   
    18    10    11 ar  
    19    10    26 1   
    20    11    12 ar  
    21    11    14 1   
    22    12    13 ar  
    23    12    27 1   
    24    13    28 1   
    25    14    15 2   
    26    14    16 2   
    27    14    17 1   
    28    17    29 1   
    29    17    30 1   
    30    17    37 1   
    31    18    19 2   
    32    18    31 1   
    33    21    22 1   
    34    22    32 1   
    35    22    33 1   
    36    22    34 1   
    37    23    35 1   
    38    23    36 1   
@<TRIPOS>SUBSTRUCTURE
     1 JDR         1 TEMP              0 ****  ****    0 ROOT
