@<TRIPOS>MOLECULE
JDS
   55    58     1     0     0
SMALL
bcc


@<TRIPOS>ATOM
      1 Cl1          0.0000     0.0000     0.0000 cl         1 JDS      -0.029400
      2 C01          6.6460     0.0000     0.0000 ca         1 JDS       0.402600
      3 N01          5.7640     0.0000     0.9850 nb         1 JDS      -0.577000
      4 O01          0.2170     5.0960    -4.4520 oh         1 JDS      -0.332500
      5 C02          8.1040     0.0070     0.3880 c3         1 JDS      -0.067700
      6 O02          1.4510     7.8980    -8.3470 oh         1 JDS      -0.484100
      7 C03          8.9750    -0.4310    -0.7880 c3         1 JDS      -0.028400
      8 N03          1.5580     4.8540    -6.4200 nb         1 JDS      -0.505000
      9 C04          8.5970     0.4140    -2.0110 c3         1 JDS      -0.030400
     10 N04         -0.1130     6.4170    -4.8370 n2         1 JDS      -0.382200
     11 C05          7.2050    -0.0100    -2.4750 c3         1 JDS       0.038900
     12 C06          6.2370    -0.0010    -1.3210 ca         1 JDS      -0.171600
     13 C07          4.4480    -0.0010     0.7700 ca         1 JDS       0.379600
     14 C08          3.9530     0.0020    -0.5560 ca         1 JDS      -0.167300
     15 C09          4.8780     0.0020    -1.6220 ca         1 JDS       0.054600
     16 C10          3.5350    -0.0030     1.8400 ca         1 JDS      -0.124300
     17 C11          2.1980    -0.0030     1.5870 ca         1 JDS      -0.100000
     18 C12          1.7130    -0.0000     0.2800 ca         1 JDS      -0.027600
     19 C13          2.5690     0.0030    -0.7810 ca         1 JDS      -0.093000
     20 C14          4.1340     1.3700    -3.3890 c3         1 JDS       0.157800
     21 C15          3.5590     1.3220    -4.8050 c3         1 JDS      -0.037400
     22 C16          3.2370     2.7430    -5.2730 c3         1 JDS      -0.026400
     23 C17          2.6610     2.6950    -6.6900 c3         1 JDS      -0.064700
     24 C18          2.3450     4.0950    -7.1510 ca         1 JDS       0.345600
     25 C19          2.8870     4.5600    -8.3370 ca         1 JDS      -0.178300
     26 C20          2.5970     5.8470    -8.7610 ca         1 JDS      -0.140000
     27 C21          1.7620     6.6310    -7.9720 ca         1 JDS       0.036800
     28 C22          1.2500     6.0940    -6.7850 ca         1 JDS       0.275000
     29 C23          0.3630     6.9090    -5.9340 ce         1 JDS       0.322200
     30 H1          -0.2880     4.8540    -3.6940 ho         1 JDS       0.399000
     31 H2           8.2560    -0.6750     1.2150 hc         1 JDS       0.029700
     32 H3           8.3880     1.0090     0.6870 hc         1 JDS       0.029700
     33 H4           3.9190    -0.7700    -3.2950 hn         1 JDS       0.293800
     34 H5           1.0260     7.8820    -9.1890 ho         1 JDS       0.406000
     35 H6          10.0190    -0.2730    -0.5460 hc         1 JDS       0.017700
     36 H7           8.7990    -1.4780    -1.0010 hc         1 JDS       0.017700
     37 H8           9.3130     0.2440    -2.8060 hc         1 JDS       0.017200
     38 H9           8.5860     1.4620    -1.7390 hc         1 JDS       0.017200
     39 H10          6.8580     0.6800    -3.2350 hc         1 JDS       0.029200
     40 H11          7.2570    -1.0100    -2.8890 hc         1 JDS       0.029200
     41 H12          3.8940    -0.0050     2.8610 ha         1 JDS       0.119000
     42 H13          1.4990    -0.0050     2.4150 ha         1 JDS       0.115000
     43 H14          2.1840    -0.1130    -1.7870 ha         1 JDS       0.118000
     44 H15          5.0400     1.9640    -3.3870 h1         1 JDS       0.016200
     45 H16          3.4090     1.8160    -2.7190 h1         1 JDS       0.016200
     46 H17          2.6530     0.7270    -4.8070 hc         1 JDS       0.016700
     47 H18          4.2840     0.8770    -5.4760 hc         1 JDS       0.016700
     48 H19          4.1430     3.3370    -5.2710 hc         1 JDS       0.028200
     49 H20          2.5110     3.1880    -4.6030 hc         1 JDS       0.028200
     50 H21          1.7550     2.1010    -6.6910 hc         1 JDS       0.021700
     51 H22          3.3860     2.2490    -7.3590 hc         1 JDS       0.021700
     52 H23          3.5340     3.9230    -8.9290 ha         1 JDS       0.116000
     53 H24          3.0100     6.2330    -9.6850 ha         1 JDS       0.118000
     54 H25          0.1100     7.9210    -6.2280 h4         1 JDS       0.010800
     55 N02          4.4430     0.0050    -2.9390 nu         1 JDS      -0.491600
@<TRIPOS>BOND
     1     1    18 1   
     2     2     3 ar  
     3     2     5 1   
     4     2    12 ar  
     5     3    13 ar  
     6     4    10 1   
     7     4    30 1   
     8     5     7 1   
     9     5    31 1   
    10     5    32 1   
    11     6    27 1   
    12     6    34 1   
    13     7     9 1   
    14     7    35 1   
    15     7    36 1   
    16     8    24 ar  
    17     8    28 ar  
    18     9    11 1   
    19     9    37 1   
    20     9    38 1   
    21    10    29 2   
    22    11    12 1   
    23    11    39 1   
    24    11    40 1   
    25    12    15 ar  
    26    13    14 ar  
    27    13    16 ar  
    28    14    15 ar  
    29    14    19 ar  
    30    15    55 1   
    31    16    17 ar  
    32    16    41 1   
    33    17    18 ar  
    34    17    42 1   
    35    18    19 ar  
    36    19    43 1   
    37    20    21 1   
    38    20    44 1   
    39    20    45 1   
    40    20    55 1   
    41    21    22 1   
    42    21    46 1   
    43    21    47 1   
    44    22    23 1   
    45    22    48 1   
    46    22    49 1   
    47    23    24 1   
    48    23    50 1   
    49    23    51 1   
    50    24    25 ar  
    51    25    26 ar  
    52    25    52 1   
    53    26    27 ar  
    54    26    53 1   
    55    27    28 ar  
    56    28    29 1   
    57    29    54 1   
    58    33    55 1   
@<TRIPOS>SUBSTRUCTURE
     1 JDS         1 TEMP              0 ****  ****    0 ROOT
