@<TRIPOS>MOLECULE
molecule
   55    58     1     0     0
SMALL
bcc


@<TRIPOS>ATOM
      1 Cl1          0.0000     0.0000     0.0000 cl         1 JDS      -0.110400
      2 C01          6.6460     0.0000     0.0000 ca         1 JDS       0.459600
      3 N01          5.7640     0.0000     0.9850 nb         1 JDS      -0.698000
      4 O01          0.2170     5.0960    -4.4520 oh         1 JDS      -0.396500
      5 C02          8.1040     0.0070     0.3880 c3         1 JDS      -0.125700
      6 O02          1.4510     7.8980    -8.3470 oh         1 JDS      -0.489100
      7 C03          8.9750    -0.4310    -0.7880 c3         1 JDS      -0.084400
      8 N03          1.5580     4.8540    -6.4200 nb         1 JDS      -0.645000
      9 C04          8.5970     0.4140    -2.0110 c3         1 JDS      -0.086400
     10 N04         -0.1130     6.4170    -4.8370 n2         1 JDS      -0.316200
     11 C05          7.2050    -0.0100    -2.4750 c3         1 JDS      -0.021100
     12 C06          6.2370    -0.0010    -1.3210 ca         1 JDS      -0.184600
     13 C07          4.4480    -0.0010     0.7700 ca         1 JDS       0.428600
     14 C08          3.9530     0.0020    -0.5560 ca         1 JDS      -0.183300
     15 C09          4.8780     0.0020    -1.6220 ca         1 JDS       0.174600
     16 C10          3.5350    -0.0030     1.8400 ca         1 JDS      -0.153300
     17 C11          2.1980    -0.0030     1.5870 ca         1 JDS      -0.118000
     18 C12          1.7130    -0.0000     0.2800 ca         1 JDS       0.027400
     19 C13          2.5690     0.0030    -0.7810 ca         1 JDS      -0.107000
     20 C14          4.1340     1.3700    -3.3890 c3         1 JDS       0.214800
     21 C15          3.5590     1.3220    -4.8050 c3         1 JDS      -0.095400
     22 C16          3.2370     2.7430    -5.2730 c3         1 JDS      -0.076400
     23 C17          2.6610     2.6950    -6.6900 c3         1 JDS      -0.121700
     24 C18          2.3450     4.0950    -7.1510 ca         1 JDS       0.398600
     25 C19          2.8870     4.5600    -8.3370 ca         1 JDS      -0.195300
     26 C20          2.5970     5.8470    -8.7610 ca         1 JDS      -0.157000
     27 C21          1.7620     6.6310    -7.9720 ca         1 JDS       0.055800
     28 C22          1.2500     6.0940    -6.7850 ca         1 JDS       0.226000
     29 C23          0.3630     6.9090    -5.9340 ce         1 JDS       0.101200
     30 H1          -0.3120     4.8420    -3.7150 ho         1 JDS       0.415000
     31 H2           8.3880     1.0090     0.6870 hc         1 JDS       0.065200
     32 H3           8.2560    -0.6750     1.2150 hc         1 JDS       0.065200
     33 H4           3.9190    -0.7700    -3.2950 hn         1 JDS       0.428800
     34 H5           0.9000     7.8740    -9.1120 ho         1 JDS       0.433000
     35 H6          10.0190    -0.2730    -0.5460 hc         1 JDS       0.047700
     36 H7           8.7990    -1.4780    -1.0010 hc         1 JDS       0.047700
     37 H8           8.5860     1.4620    -1.7390 hc         1 JDS       0.045700
     38 H9           9.3130     0.2440    -2.8060 hc         1 JDS       0.045700
     39 H10          7.2570    -1.0100    -2.8890 hc         1 JDS       0.058700
     40 H11          6.8580     0.6800    -3.2350 hc         1 JDS       0.058700
     41 H12          3.8940    -0.0050     2.8610 ha         1 JDS       0.155000
     42 H13          1.4990    -0.0050     2.4150 ha         1 JDS       0.146000
     43 H14          2.1840    -0.1130    -1.7870 ha         1 JDS       0.143000
     44 H15          3.4090     1.8160    -2.7190 h1         1 JDS       0.040700
     45 H16          5.0400     1.9640    -3.3870 h1         1 JDS       0.040700
     46 H17          2.6530     0.7270    -4.8070 hc         1 JDS       0.046200
     47 H18          4.2840     0.8770    -5.4760 hc         1 JDS       0.046200
     48 H19          2.5110     3.1880    -4.6030 hc         1 JDS       0.057200
     49 H20          4.1430     3.3370    -5.2710 hc         1 JDS       0.057200
     50 H21          1.7550     2.1010    -6.6910 hc         1 JDS       0.057200
     51 H22          3.3860     2.2490    -7.3590 hc         1 JDS       0.057200
     52 H23          3.5340     3.9230    -8.9290 ha         1 JDS       0.146000
     53 H24          3.0100     6.2330    -9.6850 ha         1 JDS       0.154000
     54 H25          1.4120     6.7300    -5.7300 h4         1 JDS       0.248800
     55 N02          4.4430     0.0050    -2.9390 nu         1 JDS      -0.829600
@<TRIPOS>BOND
     1    21    20 1
     2    21    22 1
     3    20    55 1
     4    55    15 1
     5    22    23 1
     6     1    18 1
     7    23    24 1
     8    15    14 ar
     9    15    12 ar
    10    19    14 ar
    11    19    18 ar
    12    11    12 1
    13    11     9 1
    14    14    13 ar
    15    18    17 ar
    16    12     2 ar
    17     9     7 1
    18    24     8 ar
    19    24    25 ar
    20     8    28 ar
    21    13    16 ar
    22    13     3 ar
    23    17    16 ar
    24     2     3 ar
    25     2     5 1
    26     7     5 1
    27    25    26 ar
    28    28    29 1
    29    28    27 ar
    30    29    10 2
    31    26    27 ar
    32    10     4 1
    33    27     6 1
    34     4    30 1
    35     5    31 1
    36     5    32 1
    37    55    33 1
    38     6    34 1
    39     7    35 1
    40     7    36 1
    41     9    37 1
    42     9    38 1
    43    11    39 1
    44    11    40 1
    45    16    41 1
    46    17    42 1
    47    19    43 1
    48    20    44 1
    49    20    45 1
    50    21    46 1
    51    21    47 1
    52    22    48 1
    53    22    49 1
    54    23    50 1
    55    23    51 1
    56    25    52 1
    57    26    53 1
    58    29    54 1
@<TRIPOS>SUBSTRUCTURE
     1 JDS         1 TEMP              0 ****  ****    0 ROOT
