@<TRIPOS>MOLECULE
JDX
   60    62     1     0     0
SMALL
bcc


@<TRIPOS>ATOM
      1 C15          0.0000     0.0000     0.0000 ca         1 JDX      -0.127000
      2 C16          1.3850     0.0000     0.0000 ca         1 JDX      -0.106000
      3 C14         -0.6920     0.0020     1.1930 ca         1 JDX      -0.096000
      4 C17          2.0820     0.0000     1.1940 ca         1 JDX      -0.121000
      5 C23          3.7910    -3.5230     6.2890 ca         1 JDX      -0.164000
      6 C6          -4.9690    -1.1890     4.5640 ca         1 JDX      -0.045500
      7 C10         -4.9670     1.2070     4.5610 ca         1 JDX      -0.045500
      8 C24          3.7270    -4.8070     6.8050 ca         1 JDX      -0.108000
      9 C7          -6.3280    -1.1910     4.3150 ca         1 JDX      -0.187500
     10 C9          -6.3260     1.2100     4.3120 ca         1 JDX      -0.187500
     11 C13          0.0060     0.0020     2.4020 ca         1 JDX      -0.100600
     12 C30          1.4200    -3.2860     6.5840 ca         1 JDX      -0.067600
     13 C5          -4.2890     0.0080     4.6870 ca         1 JDX      -0.133300
     14 C18          1.4020     0.0020     2.3940 ca         1 JDX      -0.013300
     15 C22          2.6490    -2.7620     6.1750 ca         1 JDX      -0.045300
     16 C25          2.5200    -5.3370     7.2120 ca         1 JDX      -0.236000
     17 C29          1.3600    -4.5860     7.1060 ca         1 JDX       0.151100
     18 C8          -7.0110     0.0100     4.1890 ca         1 JDX       0.133100
     19 C2          -0.7300     0.0040     3.6840 c          1 JDX       0.573700
     20 C4          -2.8070     0.0070     4.9580 c3         1 JDX       0.093300
     21 C19          2.1630     0.0010     3.6950 c3         1 JDX       0.176100
     22 C21          2.7250    -1.3660     5.6120 c3         1 JDX       0.201100
     23 N3          -2.0780     0.0050     3.6870 ns         1 JDX      -0.203900
     24 N20          2.2020    -1.3620     4.2400 n3         1 JDX      -0.467600
     25 O33         -0.5250    -2.5980     5.4930 o          1 JDX      -0.883800
     26 O1          -0.1200     0.0060     4.7350 o          1 JDX      -0.550100
     27 O32         -0.1320    -1.6020     7.4380 o          1 JDX      -0.883800
     28 O28          0.1720    -5.1040     7.5070 os         1 JDX      -0.269900
     29 C20          2.9870    -2.2530     3.3750 c3         1 JDX       0.150100
     30 O11         -8.3470     0.0110     3.9430 os         1 JDX      -0.313900
     31 H15         -0.5410    -0.0000    -0.9390 ha         1 JDX       0.091000
     32 H16          1.9240    -0.0010    -0.9390 ha         1 JDX       0.089000
     33 H14         -1.7760     0.0020     1.1910 ha         1 JDX       0.101000
     34 H17          3.1650    -0.0000     1.1870 ha         1 JDX       0.102000
     35 H23          4.7440    -3.1160     5.9720 ha         1 JDX       0.088000
     36 H24          4.6310    -5.3990     6.8900 ha         1 JDX       0.078000
     37 H6          -4.4350    -2.1260     4.6630 ha         1 JDX       0.116000
     38 H7          -6.8600    -2.1300     4.2190 ha         1 JDX       0.111000
     39 H10         -4.4320     2.1440     4.6580 ha         1 JDX       0.116000
     40 H9          -6.8560     2.1490     4.2130 ha         1 JDX       0.111000
     41 H25          2.4790    -6.3420     7.6150 ha         1 JDX       0.100000
     42 H41C        -2.5450    -0.8770     5.5260 h1         1 JDX       0.060200
     43 H42C        -2.5430     0.8920     5.5250 h1         1 JDX       0.060200
     44 H191         1.6720     0.6590     4.4010 h1         1 JDX       0.026200
     45 H192         3.1740     0.3500     3.5210 h1         1 JDX       0.026200
     46 H211         2.1340    -0.6960     6.2250 h1         1 JDX       0.021700
     47 H212         3.7560    -1.0340     5.6070 h1         1 JDX       0.021700
     48 H3          -2.5800     0.0300     2.8220 hn         1 JDX       0.159500
     49 H271         0.8320    -6.4740     8.8980 h1         1 JDX      -0.015633
     50 H272        -0.8170    -6.7240     8.3100 h1         1 JDX      -0.015633
     51 H273         0.5620    -7.1140     7.2720 h1         1 JDX      -0.015633
     52 H121       -10.0410     1.1430     3.6330 h1         1 JDX      -0.007633
     53 H122        -8.8550     1.8400     4.7460 h1         1 JDX      -0.007633
     54 H123        -8.5400     1.8360     3.0050 h1         1 JDX      -0.007633
     55 H201         4.0060    -1.8910     3.3140 h1         1 JDX      -0.001967
     56 H202         2.9840    -3.2540     3.7900 h1         1 JDX      -0.001967
     57 H203         2.5500    -2.2710     2.3840 h1         1 JDX      -0.001967
     58 C31          0.1920    -2.4760     6.4660 c          1 JDX       0.996200
     59 C27          0.1880    -6.4350     8.0280 c3         1 JDX       0.236700
     60 C12         -8.9850     1.2840     3.8250 c3         1 JDX       0.244700
@<TRIPOS>BOND
     1     1     2 ar  
     2     1     3 ar  
     3     1    31 1   
     4     2     4 ar  
     5     2    32 1   
     6     3    11 ar  
     7     3    33 1   
     8     4    14 ar  
     9     4    34 1   
    10     5     8 ar  
    11     5    15 ar  
    12     5    35 1   
    13     6     9 ar  
    14     6    13 ar  
    15     6    37 1   
    16     7    10 ar  
    17     7    13 ar  
    18     7    39 1   
    19     8    16 ar  
    20     8    36 1   
    21     9    18 ar  
    22     9    38 1   
    23    10    18 ar  
    24    10    40 1   
    25    11    14 ar  
    26    11    19 1   
    27    12    15 ar  
    28    12    17 ar  
    29    12    58 1   
    30    13    20 1   
    31    14    21 1   
    32    15    22 1   
    33    16    17 ar  
    34    16    41 1   
    35    17    28 1   
    36    18    30 1   
    37    19    23 1   
    38    19    26 2   
    39    20    23 1   
    40    20    42 1   
    41    20    43 1   
    42    21    24 1   
    43    21    44 1   
    44    21    45 1   
    45    22    24 1   
    46    22    46 1   
    47    22    47 1   
    48    23    48 1   
    49    24    29 1   
    50    25    58 1   
    51    27    58 1   
    52    28    59 1   
    53    29    55 1   
    54    29    56 1   
    55    29    57 1   
    56    30    60 1   
    57    49    59 1   
    58    50    59 1   
    59    51    59 1   
    60    52    60 1   
    61    53    60 1   
    62    54    60 1   
@<TRIPOS>SUBSTRUCTURE
     1 JDX         1 TEMP              0 ****  ****    0 ROOT
