@<TRIPOS>MOLECULE
JEF
  105   104     1     0     0
SMALL
bcc


@<TRIPOS>ATOM
      1 C38          0.0000     0.0000     0.0000 c3         1 JEF       0.257700
      2 O12          1.4290     0.0000     0.0000 os         1 JEF      -0.406600
      3 C37          2.0100     0.0000     1.3060 c3         1 JEF       0.209400
      4 C36          3.5290     0.1250     1.1890 c3         1 JEF       0.202400
      5 O11          3.8610     1.3950     0.6240 os         1 JEF      -0.389600
      6 C33          5.2640     1.6610     0.5730 c3         1 JEF       0.175100
      7 C34          5.8140     1.2400    -0.7900 c3         1 JEF      -0.025100
      8 C32          5.5060     3.1580     0.7810 c3         1 JEF       0.201400
      9 O10          4.9310     3.8890    -0.3030 os         1 JEF      -0.383600
     10 C19          5.1910     5.2930    -0.2610 c3         1 JEF       0.173100
     11 C40          6.4400     5.6070    -1.0880 c3         1 JEF      -0.025100
     12 C20          3.9940     6.0510    -0.8380 c3         1 JEF       0.201400
     13 O            3.8450     5.7240    -2.2210 os         1 JEF      -0.382600
     14 C            2.8210     6.4670    -2.8860 c3         1 JEF       0.173100
     15 C18          1.5180     5.6650    -2.8700 c3         1 JEF      -0.024100
     16 C17          3.2410     6.7290    -4.3340 c3         1 JEF       0.201400
     17 OH           3.3460     5.4880    -5.0330 os         1 JEF      -0.384600
     18 C2           3.6380     5.6260    -6.4240 c3         1 JEF       0.172100
     19 C1           2.3320     5.6330    -7.2210 c3         1 JEF      -0.027100
     20 C3           4.5080     4.4540    -6.8820 c3         1 JEF       0.200400
     21 O2           3.7660     3.2370    -6.7700 os         1 JEF      -0.387600
     22 C5           4.5260     2.0640    -7.0660 c3         1 JEF       0.177100
     23 C6           3.9130     0.8630    -6.3430 c3         1 JEF      -0.011100
     24 C4           4.5110     1.8140    -8.5750 c3         1 JEF       0.171400
     25 O3           3.1770     1.5260    -8.9960 os         1 JEF      -0.385600
     26 C7           3.0660     1.1780   -10.3770 c3         1 JEF       0.171100
     27 C9           3.3210    -0.3210   -10.5480 c3         1 JEF      -0.028100
     28 C8           1.6600     1.5160   -10.8780 c3         1 JEF       0.205400
     29 O4           0.7020     0.7110   -10.1880 os         1 JEF      -0.391600
     30 C11         -0.6370     0.8690   -10.6590 c3         1 JEF       0.172100
     31 C12         -1.3580     1.9160    -9.8060 c3         1 JEF      -0.023100
     32 C10         -1.3750    -0.4670   -10.5580 c3         1 JEF       0.203400
     33 O5          -1.4880    -0.8460    -9.1840 os         1 JEF      -0.390600
     34 C13         -2.0640    -2.1380    -8.9830 c3         1 JEF       0.170100
     35 C15         -3.5720    -1.9960    -8.7680 c3         1 JEF      -0.024100
     36 C14         -1.4330    -2.7920    -7.7530 c3         1 JEF       0.221400
     37 O6          -1.7590    -2.0290    -6.5890 os         1 JEF      -0.430600
     38 C16         -1.1250    -2.4920    -5.3950 c3         1 JEF       0.199400
     39 C30         -1.6390    -1.6870    -4.1990 c3         1 JEF      -0.076500
     40 C31         -1.4270    -0.1940    -4.4600 c3         1 JEF      -0.002100
     41 N1          -3.0710    -1.9520    -4.0100 nz         1 JEF       0.071400
     42 H381        -0.3610     0.5660    -0.8500 h1         1 JEF      -0.022967
     43 H382        -0.3610     0.4540     0.9150 h1         1 JEF      -0.022967
     44 H383        -0.3610    -1.0190    -0.0650 h1         1 JEF      -0.022967
     45 H371         1.7610    -0.9250     1.8120 h1         1 JEF      -0.002300
     46 H372         1.6210     0.8370     1.8740 h1         1 JEF      -0.002300
     47 H361         3.9080    -0.6640     0.5500 h1         1 JEF      -0.001800
     48 H362         3.9760     0.0390     2.1720 h1         1 JEF      -0.001800
     49 H33          5.7660     1.1020     1.3540 h1         1 JEF       0.006700
     50 H341         6.7880     1.6890    -0.9420 hc         1 JEF       0.014033
     51 H342         5.9050     0.1610    -0.8250 hc         1 JEF       0.014033
     52 H343         5.1380     1.5700    -1.5700 hc         1 JEF       0.014033
     53 H321         5.0490     3.4720     1.7110 h1         1 JEF      -0.003300
     54 H322         6.5720     3.3490     0.8190 h1         1 JEF      -0.003300
     55 H19          5.3520     5.5990     0.7660 h1         1 JEF       0.007700
     56 H401         6.4250     6.6490    -1.3840 hc         1 JEF       0.012700
     57 H402         7.3250     5.4130    -0.4940 hc         1 JEF       0.012700
     58 H403         6.4550     4.9810    -1.9720 hc         1 JEF       0.012700
     59 H201         3.0960     5.7700    -0.3010 h1         1 JEF      -0.003800
     60 H202         4.1580     7.1170    -0.7340 h1         1 JEF      -0.003800
     61 H            2.6700     7.4110    -2.3760 h1         1 JEF       0.007700
     62 H181         1.7250     4.6330    -3.1260 hc         1 JEF       0.011033
     63 H182         0.8270     6.0850    -3.5910 hc         1 JEF       0.011033
     64 H183         1.0780     5.7100    -1.8810 hc         1 JEF       0.011033
     65 H171         4.2000     7.2330    -4.3460 h1         1 JEF      -0.003800
     66 H172         2.4990     7.3540    -4.8170 h1         1 JEF      -0.003800
     67 H2           4.1680     6.5560    -6.5910 h1         1 JEF       0.009700
     68 H11A         1.9990     6.6550    -7.3610 hc         1 JEF       0.011700
     69 H12          1.5750     5.0780    -6.6790 hc         1 JEF       0.011700
     70 H13A         2.4960     5.1710    -8.1870 hc         1 JEF       0.011700
     71 H31          4.8010     4.6040    -7.9140 h1         1 JEF      -0.001800
     72 H32          5.3930     4.3970    -6.2600 h1         1 JEF      -0.001800
     73 H5           5.5480     2.2020    -6.7330 h1         1 JEF       0.012700
     74 H61          3.1730     0.3960    -6.9820 hc         1 JEF       0.013700
     75 H62          4.6900     0.1460    -6.1090 hc         1 JEF       0.013700
     76 H63          3.4400     1.1950    -5.4270 hc         1 JEF       0.013700
     77 H41          4.8700     2.6970    -9.0910 h1         1 JEF      -0.002800
     78 H42          5.1530     0.9740    -8.8080 h1         1 JEF      -0.002800
     79 H7           3.7970     1.7360   -10.9500 h1         1 JEF       0.012700
     80 H91          4.3880    -0.5050   -10.5750 hc         1 JEF       0.011367
     81 H92          2.8720    -0.6600   -11.4740 hc         1 JEF       0.011367
     82 H93          2.8820    -0.8590    -9.7160 hc         1 JEF       0.011367
     83 H81          1.4530     2.5630   -10.6920 h1         1 JEF       0.000200
     84 H82          1.5980     1.3190   -11.9410 h1         1 JEF       0.000200
     85 H11         -0.6210     1.1940   -11.6920 h1         1 JEF       0.015700
     86 H121        -2.4290     1.7920    -9.9110 hc         1 JEF       0.012367
     87 H122        -1.0800     1.7890    -8.7670 hc         1 JEF       0.012367
     88 H123        -1.0750     2.9080   -10.1370 hc         1 JEF       0.012367
     89 H101        -0.8220    -1.2270   -11.0970 h1         1 JEF       0.000200
     90 H102        -2.3650    -0.3670   -10.9870 h1         1 JEF       0.000200
     91 H13         -1.8790    -2.7550    -9.8550 h1         1 JEF       0.028700
     92 H151        -3.9420    -2.8580    -8.2250 hc         1 JEF       0.010033
     93 H152        -3.7730    -1.0970    -8.1990 hc         1 JEF       0.010033
     94 H153        -4.0700    -1.9340    -9.7280 hc         1 JEF       0.010033
     95 H141        -0.3570    -2.8250    -7.8730 h1         1 JEF       0.009200
     96 H142        -1.8150    -3.8000    -7.6430 h1         1 JEF       0.009200
     97 H161        -0.0520    -2.3630    -5.4820 h1         1 JEF       0.027200
     98 H162        -1.3520    -3.5410    -5.2480 h1         1 JEF       0.027200
     99 H30         -1.0970    -1.9780    -3.3070 hx         1 JEF       0.091700
    100 H311        -2.0340     0.1150    -5.3030 hc         1 JEF       0.045700
    101 H312        -1.7150     0.3710    -3.5820 hc         1 JEF       0.045700
    102 H313        -0.3830    -0.0100    -4.6810 hc         1 JEF       0.045700
    103 HN11        -3.5890    -1.5360    -4.7590 hn         1 JEF       0.225800
    104 HN12        -3.2300    -2.9400    -4.0020 hn         1 JEF       0.225800
    105 H131        -3.3710    -1.5590    -3.1390 hn         1 JEF       0.225800
@<TRIPOS>BOND
     1     1     2 1   
     2     1    42 1   
     3     1    43 1   
     4     1    44 1   
     5     2     3 1   
     6     3     4 1   
     7     3    45 1   
     8     3    46 1   
     9     4     5 1   
    10     4    47 1   
    11     4    48 1   
    12     5     6 1   
    13     6     7 1   
    14     6     8 1   
    15     6    49 1   
    16     7    50 1   
    17     7    51 1   
    18     7    52 1   
    19     8     9 1   
    20     8    53 1   
    21     8    54 1   
    22     9    10 1   
    23    10    11 1   
    24    10    12 1   
    25    10    55 1   
    26    11    56 1   
    27    11    57 1   
    28    11    58 1   
    29    12    13 1   
    30    12    59 1   
    31    12    60 1   
    32    13    14 1   
    33    14    15 1   
    34    14    16 1   
    35    14    61 1   
    36    15    62 1   
    37    15    63 1   
    38    15    64 1   
    39    16    17 1   
    40    16    65 1   
    41    16    66 1   
    42    17    18 1   
    43    18    19 1   
    44    18    20 1   
    45    18    67 1   
    46    19    68 1   
    47    19    69 1   
    48    19    70 1   
    49    20    21 1   
    50    20    71 1   
    51    20    72 1   
    52    21    22 1   
    53    22    23 1   
    54    22    24 1   
    55    22    73 1   
    56    23    74 1   
    57    23    75 1   
    58    23    76 1   
    59    24    25 1   
    60    24    77 1   
    61    24    78 1   
    62    25    26 1   
    63    26    27 1   
    64    26    28 1   
    65    26    79 1   
    66    27    80 1   
    67    27    81 1   
    68    27    82 1   
    69    28    29 1   
    70    28    83 1   
    71    28    84 1   
    72    29    30 1   
    73    30    31 1   
    74    30    32 1   
    75    30    85 1   
    76    31    86 1   
    77    31    87 1   
    78    31    88 1   
    79    32    33 1   
    80    32    89 1   
    81    32    90 1   
    82    33    34 1   
    83    34    35 1   
    84    34    36 1   
    85    34    91 1   
    86    35    92 1   
    87    35    93 1   
    88    35    94 1   
    89    36    37 1   
    90    36    95 1   
    91    36    96 1   
    92    37    38 1   
    93    38    39 1   
    94    38    97 1   
    95    38    98 1   
    96    39    40 1   
    97    39    41 1   
    98    39    99 1   
    99    40   100 1   
   100    40   101 1   
   101    40   102 1   
   102    41   103 1   
   103    41   104 1   
   104    41   105 1   
@<TRIPOS>SUBSTRUCTURE
     1 JEF         1 TEMP              0 ****  ****    0 ROOT
