@<TRIPOS>MOLECULE
JEG
   18    18     1     0     0
SMALL
bcc


@<TRIPOS>ATOM
      1 N01         1.5060    0.0010    0.1730 n3        1 JEG     -0.881800
      2 C02         0.0540    0.0190   -0.0080 cy        1 JEG      0.014200
      3 C03        -0.6680    0.0240    1.3650 c         1 JEG      0.894600
      4 O04        -0.2560   -0.8050    2.2390 o         1 JEG     -0.865300
      5 O05        -1.5720    0.8690    1.6120 o         1 JEG     -0.865300
      6 C06        -0.4580   -1.0850   -0.9990 cy        1 JEG     -0.044400
      7 C07        -0.6810   -0.0170   -2.0900 cy        1 JEG     -0.168700
      8 C08        -1.9860   -0.0240   -2.8720 c         1 JEG      0.918600
      9 O09        -2.6310   -1.1100   -3.0020 o         1 JEG     -0.877300
     10 O10        -2.3560    1.0440   -3.4520 o         1 JEG     -0.877300
     11 C11        -0.4400    1.0890   -1.0410 cy        1 JEG     -0.044400
     12 H1          1.7530    0.8280    0.6880 hn        1 JEG      0.317300
     13 H2          1.7130   -0.7820    0.7720 hn        1 JEG      0.317300
     14 H5          0.2820   -1.8690   -1.2600 hc        1 JEG      0.036700
     15 H6         -1.4040   -1.5520   -0.6540 hc        1 JEG      0.036700
     16 H7          0.1450   -0.0370   -2.8450 hc        1 JEG      0.015700
     17 H9          0.3110    1.8500   -1.3370 hc        1 JEG      0.036700
     18 H10        -1.3750    1.5810   -0.6950 hc        1 JEG      0.036700
@<TRIPOS>BOND
     1    1    2 1   
     2    1   12 1   
     3    1   13 1   
     4    2    3 1   
     5    2    6 1   
     6    2   11 1   
     7    3    4 1   
     8    3    5 1   
     9    6    7 1   
    10    6   14 1   
    11    6   15 1   
    12    7    8 1   
    13    7   11 1   
    14    7   16 1   
    15    8    9 1   
    16    8   10 1   
    17   11   17 1   
    18   11   18 1   
@<TRIPOS>SUBSTRUCTURE
     1 JEG         1 TEMP              0 ****  ****    0 ROOT
