@<TRIPOS>MOLECULE
JEN
   41    43     1     0     0
SMALL
bcc


@<TRIPOS>ATOM
      1 C1           0.0000     0.0000     0.0000 c3         1 JEN       0.229700
      2 O2           1.4280     0.0000     0.0000 os         1 JEN      -0.403100
      3 C3           1.8220     0.0000     1.3000 ca         1 JEN       0.549600
      4 N4           0.9190     0.0050     2.2640 nb         1 JEN      -0.349000
      5 N5           1.2450     0.0010     3.5060 nb         1 JEN      -0.285000
      6 C6           2.5050     0.0020     3.9030 ca         1 JEN       0.400200
      7 C7           3.5310     0.0020     2.9560 ca         1 JEN      -0.159300
      8 C8           3.1780     0.0020     1.6180 ca         1 JEN      -0.194300
      9 N9           2.8110     0.0020     5.2620 nh         1 JEN      -0.464300
     10 C10          1.5300     0.0010     5.9810 c3         1 JEN       0.129300
     11 C11          1.7850     0.1250     7.4830 c3         1 JEN       0.121300
     12 N12          2.4350     1.4090     7.7700 nh         1 JEN      -0.356000
     13 C13          3.7130     1.4100     7.0510 c3         1 JEN       0.121300
     14 C14          3.4590     1.2870     5.5490 c3         1 JEN       0.129300
     15 C15          2.7400     1.4090     9.1330 ca         1 JEN       0.014600
     16 C16          3.3720     2.5050     9.7050 ca         1 JEN      -0.119000
     17 C17          3.6680     2.5030    11.0540 ca         1 JEN      -0.069300
     18 C18          3.3440     1.4090    11.8330 ca         1 JEN      -0.121000
     19 C19          2.7190     0.3140    11.2660 ca         1 JEN      -0.071000
     20 C20          2.4150     0.3100     9.9190 ca         1 JEN      -0.173000
     21 C21          4.3500     3.6940    11.6760 c3         1 JEN       0.062200
     22 H11         -0.3610    -0.8830     0.5140 h1         1 JEN       0.008033
     23 H12         -0.3610     0.8860     0.5070 h1         1 JEN       0.008033
     24 H13         -0.3610    -0.0040    -1.0210 h1         1 JEN       0.008033
     25 H7           4.5710     0.0030     3.2590 ha         1 JEN       0.128000
     26 H8           3.9330     0.0020     0.8420 ha         1 JEN       0.130000
     27 H101         0.9310     0.8400     5.6480 h1         1 JEN       0.032700
     28 H102         1.0060    -0.9250     5.7810 h1         1 JEN       0.032700
     29 H111         0.8410     0.0740     8.0130 h1         1 JEN       0.029200
     30 H112         2.4290    -0.6840     7.8060 h1         1 JEN       0.029200
     31 H131         4.2370     2.3370     7.2520 h1         1 JEN       0.029200
     32 H132         4.3130     0.5720     7.3840 h1         1 JEN       0.029200
     33 H141         2.8140     2.0950     5.2260 h1         1 JEN       0.032700
     34 H142         4.4030     1.3390     5.0200 h1         1 JEN       0.032700
     35 H16          3.6270     3.3630     9.0950 ha         1 JEN       0.116000
     36 H18          3.5800     1.4100    12.8900 ha         1 JEN       0.107000
     37 H19          2.4660    -0.5430    11.8790 ha         1 JEN       0.101000
     38 H20          1.9250    -0.5480     9.4760 ha         1 JEN       0.130000
     39 H211         5.3930     3.7070    11.3830 hc         1 JEN       0.007700
     40 H212         3.8680     4.6030    11.3380 hc         1 JEN       0.007700
     41 H213         4.2790     3.6280    12.7550 hc         1 JEN       0.007700
@<TRIPOS>BOND
     1     1     2 1   
     2     1    22 1   
     3     1    23 1   
     4     1    24 1   
     5     2     3 1   
     6     3     4 ar  
     7     3     8 ar  
     8     4     5 ar  
     9     5     6 ar  
    10     6     7 ar  
    11     6     9 1   
    12     7     8 ar  
    13     7    25 1   
    14     8    26 1   
    15     9    10 1   
    16     9    14 1   
    17    10    11 1   
    18    10    27 1   
    19    10    28 1   
    20    11    12 1   
    21    11    29 1   
    22    11    30 1   
    23    12    13 1   
    24    12    15 1   
    25    13    14 1   
    26    13    31 1   
    27    13    32 1   
    28    14    33 1   
    29    14    34 1   
    30    15    16 ar  
    31    15    20 ar  
    32    16    17 ar  
    33    16    35 1   
    34    17    18 ar  
    35    17    21 1   
    36    18    19 ar  
    37    18    36 1   
    38    19    20 ar  
    39    19    37 1   
    40    20    38 1   
    41    21    39 1   
    42    21    40 1   
    43    21    41 1   
@<TRIPOS>SUBSTRUCTURE
     1 JEN         1 TEMP              0 ****  ****    0 ROOT
