@<TRIPOS>MOLECULE
molecule
   60    63     1     0     0
SMALL
bcc


@<TRIPOS>ATOM
      1 CAA          0.0000     0.0000     0.0000 c3         1 JF0      -0.047800
      2 CAY          1.5070     0.0000     0.0000 ca         1 JF0      -0.079300
      3 CAN          2.1950     0.0000     1.1950 ca         1 JF0      -0.125000
      4 CAF          2.1970    -0.0060    -1.1990 ca         1 JF0      -0.130000
      5 CAC          3.5800    -0.0050    -1.2060 ca         1 JF0      -0.121000
      6 CAG          4.2800     0.0000    -0.0160 ca         1 JF0      -0.129000
      7 CBB          3.5890     0.0010     1.1940 cp         1 JF0      -0.022000
      8 CBA          4.3350    -0.0000     2.4770 cp         1 JF0      -0.075000
      9 CAM          5.7290     0.0000     2.4740 ca         1 JF0      -0.081500
     10 CAK          6.4190     0.0010     3.6680 ca         1 JF0      -0.189500
     11 CAL          3.6430     0.0060     3.6870 ca         1 JF0      -0.081500
     12 CAJ          4.3390     0.0060     4.8770 ca         1 JF0      -0.189500
     13 CAZ          5.7280     0.0000     4.8710 ca         1 JF0       0.146100
     14 OAW          6.4110    -0.0000     6.0460 os         1 JF0      -0.329900
     15 CAR          5.6360    -0.0010     7.2460 c3         1 JF0       0.137400
     16 CAP          6.5720    -0.0020     8.4580 c3         1 JF0      -0.081400
     17 CAO          5.7430    -0.0010     9.7430 c3         1 JF0      -0.079400
     18 CAQ          6.6790    -0.0020    10.9530 c3         1 JF0      -0.106400
     19 CAS          5.8490    -0.0020    12.2390 c3         1 JF0       0.148000
     20 NBD          6.7460    -0.0030    13.3980 n          1 JF0      -0.515800
     21 CAX          7.2210     1.0890    14.0130 c          1 JF0       0.816500
     22 OAB          6.9470     2.2200    13.6600 o          1 JF0      -0.673500
     23 CAT          7.2620    -1.2020    14.0750 c3         1 JF0       0.072000
     24 CAU          8.1410    -0.6360    15.2070 c3         1 JF0       0.070000
     25 NBE          8.0240     0.8210    15.0510 n          1 JF0      -0.396000
     26 CBC          8.6470     1.7740    15.8570 ca         1 JF0       0.132600
     27 CAH          8.4650     3.1360    15.6240 ca         1 JF0      -0.299800
     28 CAD          9.0990     4.0470    16.4460 ca         1 JF0       0.441700
     29 NAV          9.8690     3.6420    17.4370 nb         1 JF0      -0.717000
     30 CAE         10.0660     2.3610    17.6900 ca         1 JF0       0.441700
     31 CAI          9.4620     1.3880    16.9200 ca         1 JF0      -0.299800
     32 HAA1        -0.3610     0.2520    -0.9900 hc         1 JF0       0.043033
     33 HAA2        -0.3610    -0.9830     0.2760 hc         1 JF0       0.043033
     34 HAA3        -0.3610     0.7310     0.7130 hc         1 JF0       0.043033
     35 HAN          1.6530     0.0000     2.1340 ha         1 JF0       0.132000
     36 HAF          1.6520    -0.0110    -2.1350 ha         1 JF0       0.129000
     37 HAC          4.1160    -0.0080    -2.1480 ha         1 JF0       0.129000
     38 HAG          5.3630     0.0010    -0.0230 ha         1 JF0       0.131000
     39 HAM          6.2690     0.0010     1.5350 ha         1 JF0       0.136000
     40 HAL          2.5590     0.0100     3.6920 ha         1 JF0       0.136000
     41 HAK          7.5030    -0.0020     3.6660 ha         1 JF0       0.139500
     42 HAJ          3.8020     0.0080     5.8180 ha         1 JF0       0.139500
     43 HAR1         5.0110    -0.8850     7.2720 h1         1 JF0       0.036200
     44 HAR2         5.0110     0.8840     7.2730 h1         1 JF0       0.036200
     45 HAP1         7.1980     0.8820     8.4310 hc         1 JF0       0.058200
     46 HAP2         7.1970    -0.8870     8.4310 hc         1 JF0       0.058200
     47 HAO1         5.1170    -0.8860     9.7690 hc         1 JF0       0.044200
     48 HAO2         5.1190     0.8840     9.7690 hc         1 JF0       0.044200
     49 HAQ1         7.3030    -0.8870    10.9260 hc         1 JF0       0.055200
     50 HAQ2         7.3040     0.8820    10.9260 hc         1 JF0       0.055200
     51 HAS1         5.2240    -0.8860    12.2660 h1         1 JF0       0.060700
     52 HAS2         5.2250     0.8830    12.2660 h1         1 JF0       0.060700
     53 HAT          6.4160    -1.6890    14.5450 h1         1 JF0       0.066700
     54 HAU          7.6560    -0.8940    16.1410 h1         1 JF0       0.072200
     55 HAH          7.8350     3.4760    14.8120 ha         1 JF0       0.163500
     56 HAI          9.6270     0.3390    17.1320 ha         1 JF0       0.163500
     57 HAD          8.9650     5.1070    16.2720 h4         1 JF0       0.024600
     58 HAE         10.7030     2.0700    18.5170 h4         1 JF0       0.024600
     59 HAR          7.9270    -1.6970    13.3770 h1         1 JF0       0.066700
     60 HAS          9.1660    -0.8980    14.9730 h1         1 JF0       0.072200
@<TRIPOS>BOND
     1     1     2 1
     2     2     3 ar
     3     2     4 ar
     4     3     7 ar
     5     4     5 ar
     6     5     6 ar
     7     6     7 ar
     8     7     8 1
     9     8     9 ar
    10     8    11 ar
    11     9    10 ar
    12    10    13 ar
    13    11    12 ar
    14    12    13 ar
    15    13    14 1
    16    14    15 1
    17    15    16 1
    18    16    17 1
    19    17    18 1
    20    18    19 1
    21    19    20 1
    22    20    21 1
    23    20    23 1
    24    21    22 2
    25    21    25 1
    26    23    24 1
    27    24    25 1
    28    25    26 1
    29    26    27 ar
    30    26    31 ar
    31    27    28 ar
    32    28    29 ar
    33    29    30 ar
    34    30    31 ar
    35     1    32 1
    36     1    33 1
    37     1    34 1
    38     3    35 1
    39     4    36 1
    40     5    37 1
    41     6    38 1
    42     9    39 1
    43    11    40 1
    44    10    41 1
    45    12    42 1
    46    15    43 1
    47    15    44 1
    48    16    45 1
    49    16    46 1
    50    17    47 1
    51    17    48 1
    52    18    49 1
    53    18    50 1
    54    19    51 1
    55    19    52 1
    56    23    53 1
    57    24    54 1
    58    23    59 1
    59    24    60 1
    60    27    55 1
    61    31    56 1
    62    28    57 1
    63    30    58 1
@<TRIPOS>SUBSTRUCTURE
     1 JF0         1 TEMP              0 ****  ****    0 ROOT
