@<TRIPOS>MOLECULE
molecule
   41    42     1     0     0
SMALL
bcc


@<TRIPOS>ATOM
      1 CAJ          0.0000     0.0000     0.0000 c3         1 JF2      -0.090400
      2 CAO          1.5320     0.0000     0.0000 c3         1 JF2       0.119200
      3 CAD          2.0440     1.2580    -0.7040 c3         1 JF2      -0.111100
      4 CAM          2.0080     0.0000     1.4570 c3         1 JF2      -0.084700
      5 CAC          1.4990     1.2600     2.1590 c3         1 JF2      -0.088100
      6 CAF          3.5370    -0.0230     1.5010 c3         1 JF2      -0.093400
      7 CAE          4.0320    -1.2570     0.7390 c3         1 JF2      -0.104400
      8 CAH          3.5050    -1.1950    -0.6940 c3         1 JF2       0.099800
      9 NAN          2.0350    -1.1890    -0.6960 nx         1 JF2      -0.639400
     10 CAI          1.5790    -1.1890    -2.0930 c3         1 JF2       0.094800
     11 CAG          0.0520    -1.2490    -2.1500 c3         1 JF2      -0.097400
     12 CAL         -0.5170    -0.0200    -1.4400 c3         1 JF2      -0.036500
     13 CAK         -2.0230    -0.0910    -1.4340 c2         1 JF2      -0.160400
     14 CAB         -2.7250     0.8610    -1.9980 c2         1 JF2      -0.175000
     15 CAA         -2.7200    -1.2560    -0.7820 c3         1 JF2      -0.052900
     16 H1          -0.3590    -0.8790     0.5230 hc         1 JF2       0.083200
     17 H2          -0.3590     0.8930     0.4980 hc         1 JF2       0.083200
     18 H3           1.4160     2.1010    -0.4390 hc         1 JF2       0.069367
     19 H4           2.0140     1.1090    -1.7770 hc         1 JF2       0.069367
     20 H5           3.0630     1.4560    -0.3950 hc         1 JF2       0.069367
     21 H6           1.6220    -0.8790     1.9590 hc         1 JF2       0.068700
     22 H7           1.7200     2.1280     1.5500 hc         1 JF2       0.057367
     23 H8           1.9880     1.3600     3.1210 hc         1 JF2       0.057367
     24 H9           0.4280     1.1840     2.3060 hc         1 JF2       0.057367
     25 H10          3.8690    -0.0760     2.5310 hc         1 JF2       0.077200
     26 H11          3.9270     0.8730     1.0340 hc         1 JF2       0.077200
     27 H12          3.6630    -2.1530     1.2230 hc         1 JF2       0.081700
     28 H13          5.1150    -1.2640     0.7260 hc         1 JF2       0.081700
     29 H14          3.8590    -2.0610    -1.2420 hx         1 JF2       0.099700
     30 H15          3.8670    -0.2920    -1.1690 hx         1 JF2       0.099700
     31 H16          1.6970    -2.0110    -0.2360 hn         1 JF2       0.445800
     32 H17          1.9900    -2.0520    -2.6030 hx         1 JF2       0.101200
     33 H18          1.9190    -0.2830    -2.5800 hx         1 JF2       0.101200
     34 H19         -0.2710    -1.2530    -3.1840 hc         1 JF2       0.084700
     35 H20         -0.2930    -2.1480    -1.6530 hc         1 JF2       0.084700
     36 H21         -0.1930     0.8770    -1.9530 hc         1 JF2       0.070700
     37 H22         -3.8080     0.8100    -1.9950 ha         1 JF2       0.128000
     38 H23         -2.2240     1.6980    -2.4680 ha         1 JF2       0.128000
     39 H24         -3.2470    -0.9150     0.1010 hc         1 JF2       0.047700
     40 H25         -1.9880    -2.0030    -0.5000 hc         1 JF2       0.047700
     41 H26         -3.4280    -1.6900    -1.4790 hc         1 JF2       0.047700
@<TRIPOS>BOND
     1     6     7 1
     2     6     4 1
     3     5     4 1
     4     7     8 1
     5     4     2 1
     6     8     9 1
     7     2     3 1
     8     2     9 1
     9     2     1 1
    10     9    10 1
    11     1    12 1
    12    10    11 1
    13    12    11 1
    14    12    13 1
    15    15    13 1
    16    13    14 2
    17     1    16 1
    18     1    17 1
    19     3    18 1
    20     3    19 1
    21     3    20 1
    22     4    21 1
    23     5    22 1
    24     5    23 1
    25     5    24 1
    26     6    25 1
    27     6    26 1
    28     7    27 1
    29     7    28 1
    30     8    29 1
    31     8    30 1
    32     9    31 1
    33    10    32 1
    34    10    33 1
    35    11    34 1
    36    11    35 1
    37    12    36 1
    38    14    37 1
    39    14    38 1
    40    15    39 1
    41    15    40 1
    42    15    41 1
@<TRIPOS>SUBSTRUCTURE
     1 JF2         1 TEMP              0 ****  ****    0 ROOT
