@<TRIPOS>MOLECULE
JF2
   41    42     1     0     0
SMALL
bcc


@<TRIPOS>ATOM
      1 CAJ          0.0000     0.0000     0.0000 c3         1 JF2      -0.044400
      2 CAO          1.5320     0.0000     0.0000 c3         1 JF2      -0.052800
      3 CAD          2.0440     1.2580    -0.7040 c3         1 JF2      -0.036100
      4 CAM          2.0080     0.0000     1.4570 c3         1 JF2      -0.053700
      5 CAC          1.4990     1.2600     2.1590 c3         1 JF2      -0.000100
      6 CAF          3.5370    -0.0230     1.5010 c3         1 JF2      -0.046400
      7 CAE          4.0320    -1.2570     0.7390 c3         1 JF2      -0.029400
      8 CAH          3.5050    -1.1950    -0.6940 c3         1 JF2      -0.029200
      9 NAN          2.0350    -1.1890    -0.6960 nx         1 JF2       0.046600
     10 CAI          1.5790    -1.1890    -2.0930 c3         1 JF2      -0.035200
     11 CAG          0.0520    -1.2490    -2.1500 c3         1 JF2      -0.034400
     12 CAL         -0.5170    -0.0200    -1.4400 c3         1 JF2      -0.004500
     13 CAK         -2.0230    -0.0910    -1.4340 c2         1 JF2      -0.182400
     14 CAB         -2.7250     0.8610    -1.9980 c2         1 JF2      -0.106000
     15 CAA         -2.7200    -1.2560    -0.7820 c3         1 JF2       0.061100
     16 H1          -0.3590    -0.8780     0.5230 hc         1 JF2       0.058700
     17 H2          -0.3590     0.8930     0.4980 hc         1 JF2       0.058700
     18 H3           1.4140     2.1000    -0.4410 hc         1 JF2       0.045033
     19 H4           2.0170     1.1080    -1.7760 hc         1 JF2       0.045033
     20 H5           3.0620     1.4580    -0.3920 hc         1 JF2       0.045033
     21 H6           1.6220    -0.8790     1.9590 hc         1 JF2       0.045700
     22 H7           0.4280     1.1840     2.3060 hc         1 JF2       0.026033
     23 H8           1.9880     1.3600     3.1210 hc         1 JF2       0.026033
     24 H9           1.7200     2.1280     1.5500 hc         1 JF2       0.026033
     25 H10          3.8690    -0.0750     2.5310 hc         1 JF2       0.051700
     26 H11          3.9270     0.8730     1.0340 hc         1 JF2       0.051700
     27 H12          3.6630    -2.1530     1.2230 hc         1 JF2       0.049200
     28 H13          5.1150    -1.2640     0.7260 hc         1 JF2       0.049200
     29 H14          3.8590    -2.0610    -1.2420 hx         1 JF2       0.079200
     30 H15          3.8670    -0.2920    -1.1690 hx         1 JF2       0.079200
     31 H16          1.6970    -2.0110    -0.2360 hn         1 JF2       0.256800
     32 H17          1.9190    -0.2830    -2.5800 hx         1 JF2       0.081700
     33 H18          1.9900    -2.0520    -2.6030 hx         1 JF2       0.081700
     34 H19         -0.2930    -2.1480    -1.6530 hc         1 JF2       0.054200
     35 H20         -0.2710    -1.2530    -3.1840 hc         1 JF2       0.054200
     36 H21         -0.1930     0.8770    -1.9530 hc         1 JF2       0.049700
     37 H22         -2.2240     1.6990    -2.4670 ha         1 JF2       0.096500
     38 H23         -3.8080     0.8100    -1.9940 ha         1 JF2       0.096500
     39 H24         -1.9890    -2.0050    -0.5020 hc         1 JF2       0.013033
     40 H25         -3.4300    -1.6880    -1.4780 hc         1 JF2       0.013033
     41 H26         -3.2450    -0.9150     0.1020 hc         1 JF2       0.013033
@<TRIPOS>BOND
     1     1     2 1   
     2     1    12 1   
     3     1    16 1   
     4     1    17 1   
     5     2     3 1   
     6     2     4 1   
     7     2     9 1   
     8     3    18 1   
     9     3    19 1   
    10     3    20 1   
    11     4     5 1   
    12     4     6 1   
    13     4    21 1   
    14     5    22 1   
    15     5    23 1   
    16     5    24 1   
    17     6     7 1   
    18     6    25 1   
    19     6    26 1   
    20     7     8 1   
    21     7    27 1   
    22     7    28 1   
    23     8     9 1   
    24     8    29 1   
    25     8    30 1   
    26     9    10 1   
    27     9    31 1   
    28    10    11 1   
    29    10    32 1   
    30    10    33 1   
    31    11    12 1   
    32    11    34 1   
    33    11    35 1   
    34    12    13 1   
    35    12    36 1   
    36    13    14 2   
    37    13    15 1   
    38    14    37 1   
    39    14    38 1   
    40    15    39 1   
    41    15    40 1   
    42    15    41 1   
@<TRIPOS>SUBSTRUCTURE
     1 JF2         1 TEMP              0 ****  ****    0 ROOT
