@<TRIPOS>MOLECULE
molecule
   41    42     1     0     0
SMALL
bcc


@<TRIPOS>ATOM
      1 CAA          0.0000     0.0000     0.0000 c2         1 JF4      -0.164000
      2 CAK          1.3100     0.0000     0.0000 c2         1 JF4      -0.165400
      3 CAB          2.0630     0.0010    -1.3060 c3         1 JF4      -0.053900
      4 CAL          2.0640     0.0000     1.3050 c3         1 JF4      -0.043500
      5 CAG          2.9490    -1.2470     1.3830 c3         1 JF4      -0.091400
      6 CAI          3.7690    -1.1990     2.6760 c3         1 JF4      -0.095400
      7 CAO          4.5850     0.0960     2.7080 c3         1 JF4       0.118200
      8 CAD          5.4040     0.1480     3.9990 c3         1 JF4      -0.114100
      9 NAN          3.6800     1.2500     2.6570 nx         1 JF4      -0.637400
     10 CAJ          2.9430     1.2490     1.3870 c3         1 JF4       0.097800
     11 CAH          5.5300     0.1330     1.5050 c3         1 JF4      -0.094400
     12 CAE          6.3510     1.4250     1.5500 c3         1 JF4      -0.098400
     13 CAF          5.3970     2.6220     1.5770 c3         1 JF4      -0.098400
     14 CAM          4.4540     2.4920     2.7740 c3         1 JF4       0.106500
     15 CAC          3.4990     3.6870     2.8050 c3         1 JF4      -0.117100
     16 H1          -0.5420    -0.0000     0.9380 ha         1 JF4       0.130000
     17 H2          -0.5420     0.0010    -0.9380 ha         1 JF4       0.130000
     18 H3           2.4820     0.9850    -1.4800 hc         1 JF4       0.049700
     19 H4           2.8620    -0.7290    -1.2630 hc         1 JF4       0.049700
     20 H5           1.3860    -0.2520    -2.1130 hc         1 JF4       0.049700
     21 H6           1.3640    -0.0030     2.1320 hc         1 JF4       0.067700
     22 H7           2.3250    -2.1330     1.3840 hc         1 JF4       0.078200
     23 H8           3.6180    -1.2690     0.5320 hc         1 JF4       0.078200
     24 H9           4.4390    -2.0490     2.7100 hc         1 JF4       0.079200
     25 H10          3.1000    -1.2240     3.5280 hc         1 JF4       0.079200
     26 H11          4.7590     0.4210     4.8250 hc         1 JF4       0.069367
     27 H12          6.1920     0.8850     3.8970 hc         1 JF4       0.069367
     28 H13          5.8420    -0.8250     4.1890 hc         1 JF4       0.069367
     29 H15          3.6470     1.2480     0.5640 hx         1 JF4       0.106700
     30 H16          2.3190     2.1320     1.3340 hx         1 JF4       0.106700
     31 H17          6.1980    -0.7200     1.5440 hc         1 JF4       0.081200
     32 H18          4.9510     0.1040     0.5900 hc         1 JF4       0.081200
     33 H19          6.9800     1.4830     0.6700 hc         1 JF4       0.076700
     34 H20          6.9650     1.4320     2.4420 hc         1 JF4       0.076700
     35 H21          5.9700     3.5370     1.6670 hc         1 JF4       0.080200
     36 H22          4.8170     2.6410     0.6620 hc         1 JF4       0.080200
     37 H23          5.0360     2.4670     3.6880 hx         1 JF4       0.108700
     38 H24          3.1770     3.9180     1.7960 hc         1 JF4       0.069700
     39 H25          2.6360     3.4450     3.4130 hc         1 JF4       0.069700
     40 H26          4.0080     4.5460     3.2260 hc         1 JF4       0.069700
     41 H14          3.0300     1.1930     3.4160 hn         1 JF4       0.441800
@<TRIPOS>BOND
     1     1     2 2
     2     3     2 1
     3     2     4 1
     4     5     4 1
     5     5     6 1
     6     4    10 1
     7     6     7 1
     8    10     9 1
     9     7     9 1
    10     7    11 1
    11     7     8 1
    12     9    14 1
    13    11    12 1
    14    14    15 1
    15    14    13 1
    16    12    13 1
    17     1    16 1
    18     1    17 1
    19     3    18 1
    20     3    19 1
    21     3    20 1
    22     4    21 1
    23     5    22 1
    24     5    23 1
    25     6    24 1
    26     6    25 1
    27     8    26 1
    28     8    27 1
    29     8    28 1
    30    10    29 1
    31    10    30 1
    32    11    31 1
    33    11    32 1
    34    12    33 1
    35    12    34 1
    36    13    35 1
    37    13    36 1
    38    14    37 1
    39    15    38 1
    40    15    39 1
    41    15    40 1
    42     9    41 1
@<TRIPOS>SUBSTRUCTURE
     1 JF4         1 TEMP              0 ****  ****    0 ROOT
