@<TRIPOS>MOLECULE
JF6
   19    20     1     0     0
SMALL
bcc


@<TRIPOS>ATOM
      1 C1         -0.0020    0.0230   -0.0210 ca        1 JF6     -0.113000
      2 C2          1.3880    0.1380    0.0120 ca        1 JF6     -0.133500
      3 C6         -0.7160   -0.1360    1.1670 ca        1 JF6     -0.133500
      4 C3          2.0660    0.1010    1.2300 ca        1 JF6     -0.103000
      5 C5         -0.0470   -0.1740    2.3890 ca        1 JF6     -0.103000
      6 C4          1.3480   -0.0460    2.4250 ca        1 JF6     -0.143500
      7 C7          2.0520   -0.0700    3.6930 cc        1 JF6      0.259500
      8 C8          1.6640    0.6820    4.9400 cc        1 JF6      0.442900
      9 N11         3.1770   -0.7330    4.0060 nd        1 JF6     -0.318300
     10 N9          2.6190    0.3820    5.8620 nd        1 JF6     -0.413300
     11 N12         0.5130    1.4290    5.0910 nh        1 JF6     -0.901500
     12 O10         3.4770   -0.4560    5.2690 os        1 JF6      0.117600
     13 H1         -0.5340    0.0510   -0.9830 ha        1 JF6      0.137000
     14 H2          1.9530    0.2550   -0.9240 ha        1 JF6      0.138500
     15 H6         -1.8110   -0.2400    1.1410 ha        1 JF6      0.138500
     16 H3          3.1630    0.1830    1.2530 ha        1 JF6      0.148000
     17 H5         -0.6140   -0.3260    3.3200 ha        1 JF6      0.148000
     18 H121        0.5030    2.0570    5.8660 hn        1 JF6      0.416300
     19 H122        0.1800    1.8190    4.2360 hn        1 JF6      0.416300
@<TRIPOS>BOND
     1    1    2 ar
     2    1    3 ar
     3    1   13 1
     4    2    4 ar
     5    2   14 1
     6    3    5 ar
     7    3   15 1
     8    4    6 ar
     9    4   16 1
    10    5    6 ar
    11    5   17 1
    12    6    7 1
    13    7    8 1
    14    7    9 2
    15    8   10 2
    16    8   11 1
    17    9   12 1
    18   10   12 1
    19   11   18 1
    20   11   19 1
@<TRIPOS>SUBSTRUCTURE
     1 JF6         1 TEMP              0 ****  ****    0 ROOT
