@<TRIPOS>MOLECULE
molecule
   15    15     1     0     0
SMALL
bcc


@<TRIPOS>ATOM
      1 Br           0.0000     0.0000     0.0000 br         1 JFD       0.070300
      2 C5           1.8900     0.0000     0.0000 cc         1 JFD      -0.142500
      3 C4           2.6030     0.0000     1.2100 c          1 JFD       0.696700
      4 O8           2.0060    -0.0010     2.2730 o          1 JFD      -0.512500
      5 N3           3.9500    -0.0000     1.1890 ns         1 JFD      -0.542500
      6 C2           4.6160     0.0010     0.0200 c          1 JFD       0.814500
      7 O9           5.8320     0.0010     0.0230 o          1 JFD      -0.559500
      8 N1           3.9570     0.0010    -1.1530 ns         1 JFD      -0.456100
      9 C6           2.5830    -0.0050    -1.1790 cd         1 JFD       0.086600
     10 N7           1.9140    -0.0110    -2.3760 nz         1 JFD      -0.672400
     11 HN3          4.4600    -0.0010     2.0500 hn         1 JFD       0.403500
     12 HN1          4.4710     0.0060    -2.0130 hn         1 JFD       0.372500
     13 HN7          1.3720     0.8260    -2.4590 hn         1 JFD       0.479800
     14 HN7A         1.3070    -0.8060    -2.4150 hn         1 JFD       0.479800
     15 H73          2.5740    -0.0570    -3.1270 hn         1 JFD       0.479800
@<TRIPOS>BOND
     1     1     2 1
     2     2     3 1
     3     2     9 2
     4     3     4 2
     5     3     5 1
     6     5     6 1
     7     6     7 2
     8     6     8 1
     9     8     9 1
    10     9    10 1
    11     5    11 1
    12     8    12 1
    13    10    13 1
    14    10    14 1
    15    15    10 1
@<TRIPOS>SUBSTRUCTURE
     1 JFD         1 TEMP              0 ****  ****    0 ROOT
