@<TRIPOS>MOLECULE
molecule
   20    20     1     0     0
SMALL
bcc


@<TRIPOS>ATOM
      1 C01          0.0000     0.0000     0.0000 c3         1 JFJ       0.146100
      2 N02          1.4690     0.0000     0.0000 n7         1 JFJ      -0.815200
      3 C03          1.9950     0.0000     1.3720 c3         1 JFJ       0.203100
      4 C04          3.5020    -0.0010     1.3320 ca         1 JFJ      -0.077300
      5 C05          4.1930     1.1970     1.3140 ca         1 JFJ      -0.104000
      6 C06          5.5750     1.1970     1.2770 ca         1 JFJ      -0.121000
      7 C07          6.2660     0.0010     1.2600 ca         1 JFJ      -0.120000
      8 C08          5.5750    -1.1970     1.2770 ca         1 JFJ       0.029400
      9 C09          4.1920    -1.1980     1.3200 ca         1 JFJ      -0.120000
     10 Cl10         6.4430    -2.7010     1.2540 cl         1 JFJ      -0.112400
     11 H011        -0.3610    -0.8880     0.5050 h1         1 JFJ       0.031700
     12 H012        -0.3610     0.0060    -1.0210 h1         1 JFJ       0.031700
     13 H013        -0.3610     0.8810     0.5160 h1         1 JFJ       0.031700
     14 H021         1.8030    -0.8090    -0.4850 hn         1 JFJ       0.356800
     15 H031         1.6470    -0.8840     1.8920 h1         1 JFJ       0.039700
     16 H032         1.6480     0.8850     1.8910 h1         1 JFJ       0.039700
     17 H051         3.6510     2.1350     1.3280 ha         1 JFJ       0.140000
     18 H061         6.1160     2.1350     1.2630 ha         1 JFJ       0.137000
     19 H071         7.3490     0.0010     1.2290 ha         1 JFJ       0.143000
     20 H091         3.6510    -2.1360     1.3340 ha         1 JFJ       0.141000
@<TRIPOS>BOND
     1     1     2 1
     2     2     3 1
     3     3     4 1
     4     4     5 ar
     5     4     9 ar
     6     5     6 ar
     7     9     8 ar
     8     6     7 ar
     9     8     7 ar
    10     8    10 1
    11     1    11 1
    12     1    12 1
    13     1    13 1
    14     2    14 1
    15     3    15 1
    16     3    16 1
    17     5    17 1
    18     6    18 1
    19     7    19 1
    20     9    20 1
@<TRIPOS>SUBSTRUCTURE
     1 JFJ         1 TEMP              0 ****  ****    0 ROOT
