@<TRIPOS>MOLECULE
JFJ
   20    20     1     0     0
SMALL
bcc


@<TRIPOS>ATOM
      1 C01          0.0000     0.0000     0.0000 c3         1 JFJ       0.178100
      2 N02          1.4690     0.0000     0.0000 n7         1 JFJ      -0.582200
      3 C03          1.9950     0.0000     1.3720 c3         1 JFJ       0.200100
      4 C04          3.5020    -0.0010     1.3320 ca         1 JFJ      -0.085300
      5 C05          4.1930     1.1970     1.3140 ca         1 JFJ      -0.077000
      6 C06          5.5750     1.1970     1.2770 ca         1 JFJ      -0.091000
      7 C07          6.2660     0.0010     1.2600 ca         1 JFJ      -0.099000
      8 C08          5.5750    -1.1970     1.2770 ca         1 JFJ      -0.032600
      9 C09          4.1920    -1.1980     1.3200 ca         1 JFJ      -0.097000
     10 Cl10         6.4430    -2.7010     1.2540 cl         1 JFJ      -0.031400
     11 H011        -0.3610    -0.8880     0.5050 h1         1 JFJ      -0.001633
     12 H012        -0.3610     0.0060    -1.0210 h1         1 JFJ      -0.001633
     13 H013        -0.3610     0.8810     0.5160 h1         1 JFJ      -0.001633
     14 H021         1.8030    -0.8090    -0.4850 hn         1 JFJ       0.253800
     15 H031         1.6470    -0.8840     1.8920 h1         1 JFJ       0.010700
     16 H032         1.6480     0.8850     1.8910 h1         1 JFJ       0.010700
     17 H051         3.6510     2.1350     1.3280 ha         1 JFJ       0.111000
     18 H061         6.1160     2.1350     1.2630 ha         1 JFJ       0.106000
     19 H071         7.3490     0.0010     1.2290 ha         1 JFJ       0.114000
     20 H091         3.6510    -2.1360     1.3340 ha         1 JFJ       0.114000
@<TRIPOS>BOND
     1     1     2 1   
     2     1    11 1   
     3     1    12 1   
     4     1    13 1   
     5     2     3 1   
     6     2    14 1   
     7     3     4 1   
     8     3    15 1   
     9     3    16 1   
    10     4     5 ar  
    11     4     9 ar  
    12     5     6 ar  
    13     5    17 1   
    14     6     7 ar  
    15     6    18 1   
    16     7     8 ar  
    17     7    19 1   
    18     8     9 ar  
    19     8    10 1   
    20     9    20 1   
@<TRIPOS>SUBSTRUCTURE
     1 JFJ         1 TEMP              0 ****  ****    0 ROOT
