@<TRIPOS>MOLECULE
JFK
   66    70     1     0     0
SMALL
bcc


@<TRIPOS>ATOM
      1 C           1.0510    0.3930    0.7270 c         1 JFK      0.675500
      2 N           2.1390    1.9960   -0.8700 n3        1 JFK     -0.808500
      3 O           1.2040   -0.7110    1.2900 o         1 JFK     -0.643500
      4 CA          2.3330    1.1190    0.2510 c3        1 JFK      0.193500
      5 CB          2.9470    1.8130    1.4860 c3        1 JFK     -0.079400
      6 CAA        -3.7330   -3.0460   -6.8440 c3        1 JFK      0.110700
      7 CAB        -1.1850    1.5840   -5.5200 c3        1 JFK      0.103700
      8 OAD         6.4570   -4.7530   -2.9830 o         1 JFK     -0.561500
      9 OAE         0.9680    1.6980   -3.0510 o         1 JFK     -0.666800
     10 OAF         3.2040    2.4890   -3.0730 o         1 JFK     -0.666800
     11 CAG        -2.5490   -2.4690   -2.8560 ca        1 JFK     -0.141000
     12 CAH        -2.9550   -2.6890   -4.1750 ca        1 JFK     -0.177000
     13 CAI         1.9160   -1.0150   -2.4610 ca        1 JFK      0.031000
     14 CAJ         2.3480   -2.3320   -2.5450 ca        1 JFK     -0.171000
     15 CAK        -1.6000   -0.3120   -3.5050 ca        1 JFK     -0.209000
     16 CAL         4.1850   -0.1880   -2.6380 ca        1 JFK      0.055000
     17 CAM         3.7040    3.0710    1.1210 c3        1 JFK     -0.070400
     18 CAN        -2.1780   -0.2490   -0.4480 c3        1 JFK      0.106400
     19 CAO         2.8520    4.0480    0.3330 c3        1 JFK     -0.088400
     20 CAQ         0.4290    3.3670    0.3060 c3        1 JFK     -0.104400
     21 CAR        -1.3660    0.0910    0.8090 c3        1 JFK      0.078000
     22 CAS        -0.5060    2.2130   -0.0390 c3        1 JFK      0.094000
     23 NAT         4.3430   -3.8210   -2.7660 n         1 JFK     -0.464100
     24 OAU        -3.0600   -1.8460   -6.4830 os        1 JFK     -0.301900
     25 OAV        -1.7950    0.3400   -5.8620 os        1 JFK     -0.307900
     26 OAW        -1.3750   -1.1290   -1.2470 os        1 JFK     -0.349900
     27 SAX         6.2500   -2.0510   -2.8910 ss        1 JFK     -0.046500
     28 CAZ        -1.8740   -1.2920   -2.5370 ca        1 JFK      0.072100
     29 CBA         2.8120    0.0670   -2.4980 ca        1 JFK     -0.430500
     30 CBB        -2.6970   -1.7330   -5.1560 ca        1 JFK      0.094100
     31 CBC        -2.0100   -0.5310   -4.8180 ca        1 JFK      0.122100
     32 CBD         5.7440   -3.7480   -2.8910 c         1 JFK      0.694100
     33 CBE         3.7240   -2.5800   -2.6720 ca        1 JFK      0.115600
     34 CBF         4.6500   -1.4880   -2.7230 ca        1 JFK     -0.124100
     35 CBG         1.7510    3.3420   -0.4830 c3        1 JFK      0.236500
     36 NBI        -0.2150    0.9420    0.5880 n         1 JFK     -0.458800
     37 SBK         2.2540    1.6450   -2.4670 sy        1 JFK      1.531200
     38 HA          3.0360    0.2880   -0.0700 h1        1 JFK      0.088700
     39 HB          2.1370    2.0640    2.2190 hc        1 JFK      0.059700
     40 HBA         3.6330    1.0810    1.9850 hc        1 JFK      0.059700
     41 HAA        -4.7000   -3.1400   -6.2920 h1        1 JFK      0.043367
     42 HAAA       -3.0860   -3.9360   -6.6540 h1        1 JFK      0.043367
     43 HAAB       -3.9170   -2.9180   -7.9410 h1        1 JFK      0.043367
     44 HAB        -1.0970    2.1030   -6.5080 h1        1 JFK      0.053367
     45 HABA       -0.1780    1.4260   -5.0590 h1        1 JFK      0.053367
     46 HABB       -1.8420    2.1610   -4.8270 h1        1 JFK      0.053367
     47 HAG        -2.7490   -3.2200   -2.0790 ha        1 JFK      0.145000
     48 HAH        -3.4820   -3.6200   -4.4260 ha        1 JFK      0.141000
     49 HAI         0.8270   -0.8170   -2.3700 ha        1 JFK      0.179000
     50 HAJ         1.6250   -3.1590   -2.5060 ha        1 JFK      0.161000
     51 HAK        -1.0480    0.6000   -3.2190 ha        1 JFK      0.183000
     52 HAL         4.8910    0.6610   -2.6970 ha        1 JFK      0.168000
     53 HAM         4.6090    2.7950    0.5170 hc        1 JFK      0.048200
     54 HAMA        4.0720    3.5650    2.0580 hc        1 JFK      0.048200
     55 HAN        -2.4490    0.6650   -1.0360 h1        1 JFK      0.043200
     56 HANA       -3.1120   -0.7920   -0.1460 h1        1 JFK      0.043200
     57 HAO         2.3700    4.7870    1.0220 hc        1 JFK      0.053200
     58 HAOA        3.5100    4.6250   -0.3680 hc        1 JFK      0.053200
     59 HAQ         0.6380    3.3760    1.4070 hc        1 JFK      0.060200
     60 HAQA       -0.1000    4.3240    0.0560 hc        1 JFK      0.060200
     61 HAR        -1.0260   -0.8730    1.2850 h1        1 JFK      0.076200
     62 HARA       -2.0650    0.6180    1.5210 h1        1 JFK      0.076200
     63 HAS        -1.5440    2.5140    0.2970 h1        1 JFK      0.052700
     64 HASA       -0.5430    2.0860   -1.1640 h1        1 JFK      0.052700
     65 HNAT        3.8440   -4.6780   -2.7350 hn        1 JFK      0.354500
     66 HBG         1.5940    3.9290   -1.4410 h1        1 JFK      0.060700
@<TRIPOS>BOND
     1    1    3 2
     2    1    4 1
     3    1   36 1
     4    2    4 1
     5    2   35 1
     6    2   37 1
     7    4    5 1
     8    4   38 1
     9    5   17 1
    10    5   39 1
    11    5   40 1
    12    6   24 1
    13    6   41 1
    14    6   42 1
    15    6   43 1
    16    7   25 1
    17    7   44 1
    18    7   45 1
    19    7   46 1
    20    8   32 2
    21    9   37 2
    22   10   37 2
    23   11   12 ar
    24   11   28 ar
    25   11   47 1
    26   12   30 ar
    27   12   48 1
    28   13   14 ar
    29   13   29 ar
    30   13   49 1
    31   14   33 ar
    32   14   50 1
    33   15   28 ar
    34   15   31 ar
    35   15   51 1
    36   16   29 ar
    37   16   34 ar
    38   16   52 1
    39   17   19 1
    40   17   53 1
    41   17   54 1
    42   18   21 1
    43   18   26 1
    44   18   55 1
    45   18   56 1
    46   19   35 1
    47   19   57 1
    48   19   58 1
    49   20   22 1
    50   20   35 1
    51   20   59 1
    52   20   60 1
    53   21   36 1
    54   21   61 1
    55   21   62 1
    56   22   36 1
    57   22   63 1
    58   22   64 1
    59   23   32 1
    60   23   33 1
    61   23   65 1
    62   24   30 1
    63   25   31 1
    64   26   28 1
    65   27   32 1
    66   27   34 1
    67   29   37 1
    68   30   31 ar
    69   33   34 ar
    70   35   66 1
@<TRIPOS>SUBSTRUCTURE
     1 JFK         1 TEMP              0 ****  ****    0 ROOT
