@<TRIPOS>MOLECULE
JFM
   26    26     1     0     0
SMALL
bcc


@<TRIPOS>ATOM
      1 C10          0.0000     0.0000     0.0000 ca         1 JFM      -0.098000
      2 C13          1.3800    -0.0110     2.3950 ca         1 JFM      -0.095500
      3 C01          5.9470    -3.9830     0.1820 c3         1 JFM       0.009700
      4 S02          6.3690    -2.8520     1.5370 s6         1 JFM       0.954900
      5 O03          5.7910    -3.2990     2.7570 o          1 JFM      -0.584300
      6 O04          7.7380    -2.4800     1.4680 o          1 JFM      -0.584300
      7 N05          5.5470    -1.4590     1.1820 n7         1 JFM      -0.602100
      8 C06          4.0830    -1.4520     1.1810 c3         1 JFM       0.228800
      9 C07          3.5790    -0.0070     1.1980 c3         1 JFM       0.021900
     10 C08          2.0730     0.0000     1.1980 ca         1 JFM      -0.095300
     11 C09          1.3820     0.0000     0.0000 ca         1 JFM      -0.095500
     12 C11         -0.6920     0.0010     1.1970 ca         1 JFM      -0.101000
     13 C12         -0.0010    -0.0030     2.3940 ca         1 JFM      -0.098000
     14 H101        -0.5410     0.0020    -0.9380 ha         1 JFM       0.103000
     15 H131         1.9210    -0.0140     3.3340 ha         1 JFM       0.106000
     16 H011         5.9540    -3.4420    -0.7560 h1         1 JFM       0.062033
     17 H012         4.9600    -4.3980     0.3520 h1         1 JFM       0.062033
     18 H013         6.6740    -4.7860     0.1420 h1         1 JFM       0.062033
     19 H051         6.0510    -0.6210     0.9720 hn         1 JFM       0.353800
     20 H061         3.7190    -1.9720     2.0590 h1         1 JFM       0.015200
     21 H062         3.7200    -1.9510     0.2910 h1         1 JFM       0.015200
     22 H071         3.9430     0.4920     2.0890 hc         1 JFM       0.022700
     23 H072         3.9430     0.5130     0.3200 hc         1 JFM       0.022700
     24 H091         1.9240     0.0040    -0.9380 ha         1 JFM       0.106000
     25 H111        -1.7750     0.0040     1.1970 ha         1 JFM       0.103000
     26 H121        -0.5430    -0.0070     3.3310 ha         1 JFM       0.103000
@<TRIPOS>BOND
     1     1    11 ar  
     2     1    12 ar  
     3     1    14 1   
     4     2    10 ar  
     5     2    13 ar  
     6     2    15 1   
     7     3     4 1   
     8     3    16 1   
     9     3    17 1   
    10     3    18 1   
    11     4     5 2   
    12     4     6 2   
    13     4     7 1   
    14     7     8 1   
    15     7    19 1   
    16     8     9 1   
    17     8    20 1   
    18     8    21 1   
    19     9    10 1   
    20     9    22 1   
    21     9    23 1   
    22    10    11 ar  
    23    11    24 1   
    24    12    13 ar  
    25    12    25 1   
    26    13    26 1   
@<TRIPOS>SUBSTRUCTURE
     1 JFM         1 TEMP              0 ****  ****    0 ROOT
