@<TRIPOS>MOLECULE
molecule
   18    17     1     0     0
SMALL
bcc


@<TRIPOS>ATOM
      1 C07          0.0000     0.0000     0.0000 c3         1 JFN       0.129700
      2 C08          3.5350     0.0000     1.1850 c3         1 JFN       0.104500
      3 C09          2.0100     0.0000     1.3060 c3         1 JFN       0.113400
      4 C15          4.1570     0.1260     2.5770 c3         1 JFN      -0.121100
      5 N04          3.9770    -1.2540     0.5620 nz         1 JFN      -0.806600
      6 O02          1.4280     0.0000     0.0000 os         1 JFN      -0.457600
      7 H02         -0.3610    -0.0060    -1.0210 h1         1 JFN       0.054700
      8 H03         -0.3610     0.8870     0.5060 h1         1 JFN       0.054700
      9 H01         -0.3610    -0.8820     0.5160 h1         1 JFN       0.054700
     10 H081         3.8480     0.8370     0.5720 hx         1 JFN       0.128700
     11 H091         1.6900     0.8850     1.8440 h1         1 JFN       0.067200
     12 H092         1.6900    -0.8850     1.8440 h1         1 JFN       0.067200
     13 H151         5.2360     0.0770     2.4950 hc         1 JFN       0.079367
     14 H152         3.8050    -0.6840     3.2040 hc         1 JFN       0.079367
     15 H153         3.8710     1.0740     3.0160 hc         1 JFN       0.079367
     16 H1           4.9650    -1.3560     0.6830 hn         1 JFN       0.458133
     17 H042         3.7610    -1.2360    -0.4150 hn         1 JFN       0.458133
     18 H043         3.5070    -2.0250     0.9940 hn         1 JFN       0.458133
@<TRIPOS>BOND
     1     5     2 1
     2     1     6 1
     3     6     3 1
     4     3     2 1
     5     2     4 1
     6     1     7 1
     7     1     8 1
     8     1     9 1
     9     2    10 1
    10     3    11 1
    11     3    12 1
    12     4    13 1
    13     4    14 1
    14     4    15 1
    15     5    16 1
    16     5    17 1
    17    18     5 1
@<TRIPOS>SUBSTRUCTURE
     1 JFN         1 TEMP              0 ****  ****    0 ROOT
