@<TRIPOS>MOLECULE
JFP
   21    21     1     0     0
SMALL
bcc


@<TRIPOS>ATOM
      1 C01          0.0000     0.0000     0.0000 c3         1 JFP       0.020900
      2 C02          1.5300     0.0000     0.0000 c3         1 JFP      -0.090400
      3 C03          2.0330     0.0000     1.4210 c          1 JFP       0.539100
      4 O04          1.2440     0.0000     2.3430 o          1 JFP      -0.600100
      5 N05          3.3580     0.0010     1.6670 ns         1 JFP      -0.061400
      6 C06          3.8210     0.0010     2.9780 cc         1 JFP       0.401300
      7 N07          5.0700     0.0010     3.3230 nd         1 JFP      -0.620000
      8 C08          5.3320     0.0020     4.6160 cd         1 JFP       0.349600
      9 C09          4.2530     0.0020     5.4010 cc         1 JFP      -0.167400
     10 S10          2.8260     0.0090     4.3680 ss         1 JFP      -0.219300
     11 C11          6.7370    -0.0030     5.1630 c3         1 JFP      -0.015400
     12 H011        -0.3610    -0.8840     0.5110 hc         1 JFP       0.011700
     13 H012        -0.3610    -0.0000    -1.0210 hc         1 JFP       0.011700
     14 H013        -0.3610     0.8850     0.5100 hc         1 JFP       0.011700
     15 H022         1.8910     0.8850    -0.5110 hc         1 JFP       0.028200
     16 H021         1.8910    -0.8850    -0.5110 hc         1 JFP       0.028200
     17 H051         4.0080    -0.0250     0.9060 hn         1 JFP       0.176500
     18 H091         4.2540     0.0030     6.4850 h4         1 JFP       0.161000
     19 H111         6.8870     0.8740     5.7800 hc         1 JFP       0.011700
     20 H112         7.4430     0.0070     4.3420 hc         1 JFP       0.011700
     21 H113         6.8890    -0.8950     5.7590 hc         1 JFP       0.011700
@<TRIPOS>BOND
     1     1     2 1   
     2     1    12 1   
     3     1    13 1   
     4     1    14 1   
     5     2     3 1   
     6     2    15 1   
     7     2    16 1   
     8     3     4 2   
     9     3     5 1   
    10     5     6 1   
    11     5    17 1   
    12     6     7 2   
    13     6    10 1   
    14     7     8 1   
    15     8     9 2   
    16     8    11 1   
    17     9    10 1   
    18     9    18 1   
    19    11    19 1   
    20    11    20 1   
    21    11    21 1   
@<TRIPOS>SUBSTRUCTURE
     1 JFP         1 TEMP              0 ****  ****    0 ROOT
