@<TRIPOS>MOLECULE
molecule
   21    21     1     0     0
SMALL
bcc


@<TRIPOS>ATOM
      1 C01          0.0000     0.0000     0.0000 c3         1 JFP      -0.078100
      2 C02          1.5300     0.0000     0.0000 c3         1 JFP      -0.152400
      3 C03          2.0330     0.0000     1.4210 c          1 JFP       0.653100
      4 O04          1.2440     0.0000     2.3430 o          1 JFP      -0.583100
      5 N05          3.3580     0.0010     1.6670 ns         1 JFP      -0.519400
      6 C06          3.8210     0.0010     2.9780 cc         1 JFP       0.539300
      7 N07          5.0700     0.0010     3.3230 nc         1 JFP      -0.743000
      8 C08          5.3320     0.0020     4.6160 cc         1 JFP       0.397600
      9 C09          4.2530     0.0020     5.4010 cd         1 JFP      -0.254400
     10 S10          2.8260     0.0090     4.3680 ss         1 JFP      -0.084300
     11 C11          6.7370    -0.0030     5.1630 c3         1 JFP      -0.116400
     12 H011        -0.3610    -0.8840     0.5110 hc         1 JFP       0.047700
     13 H012        -0.3610    -0.0000    -1.0210 hc         1 JFP       0.047700
     14 H013        -0.3610     0.8850     0.5100 hc         1 JFP       0.047700
     15 H022         1.8910     0.8850    -0.5110 hc         1 JFP       0.065200
     16 H021         1.8910    -0.8850    -0.5110 hc         1 JFP       0.065200
     17 H051         4.0080    -0.0250     0.9060 hn         1 JFP       0.343500
     18 H091         4.2540     0.0030     6.4850 h4         1 JFP       0.178000
     19 H111         6.8870     0.8740     5.7800 hc         1 JFP       0.049033
     20 H112         7.4430     0.0070     4.3420 hc         1 JFP       0.049033
     21 H113         6.8890    -0.8950     5.7590 hc         1 JFP       0.049033
@<TRIPOS>BOND
     1    11     8 1
     2     8     9 2
     3     8     7 1
     4     9    10 1
     5     7     6 2
     6    10     6 1
     7     6     5 1
     8     5     3 1
     9     3     2 1
    10     3     4 2
    11     2     1 1
    12     1    12 1
    13     1    13 1
    14     1    14 1
    15     2    15 1
    16     2    16 1
    17     5    17 1
    18     9    18 1
    19    11    19 1
    20    11    20 1
    21    11    21 1
@<TRIPOS>SUBSTRUCTURE
     1 JFP         1 TEMP              0 ****  ****    0 ROOT
