@<TRIPOS>MOLECULE
molecule
   35    35     1     0     0
SMALL
bcc


@<TRIPOS>ATOM
      1 C1           0.0000     0.0000     0.0000 c3         1 JFQ       0.094800
      2 N1           1.4690     0.0000     0.0000 nz         1 JFQ      -0.808600
      3 C2          -0.5100     0.0000     1.4420 c3         1 JFQ      -0.115400
      4 N2          -2.5300     0.0000     2.8280 n7         1 JFQ      -0.801200
      5 C3          -2.0400    -0.0000     1.4430 c3         1 JFQ       0.165800
      6 N3          -7.9840    -0.8260     4.1560 nz         1 JFQ      -0.808600
      7 C4          -3.9980     0.0010     2.8680 c3         1 JFQ       0.159500
      8 C5          -4.4720     0.6100     4.1880 c3         1 JFQ      -0.086900
      9 C6          -6.0020     0.6110     4.2290 c3         1 JFQ      -0.100400
     10 C7          -6.5160    -0.8260     4.1170 c3         1 JFQ       0.096500
     11 C8          -6.0410    -1.4360     2.7960 c3         1 JFQ      -0.100400
     12 C9          -4.5120    -1.4360     2.7550 c3         1 JFQ      -0.086900
     13 H1          -0.3610    -0.8850    -0.5110 hx         1 JFQ       0.114200
     14 H1A         -0.3610     0.8850    -0.5110 hx         1 JFQ       0.114200
     15 HN1          1.8030     0.0460    -0.9420 hn         1 JFQ       0.462800
     16 HN1A         1.8030    -0.8390     0.4310 hn         1 JFQ       0.462800
     17 H2          -0.1490    -0.8840     1.9530 hc         1 JFQ       0.077200
     18 H2A         -0.1490     0.8840     1.9530 hc         1 JFQ       0.077200
     19 HN2         -2.1830    -0.8090     3.3040 hn         1 JFQ       0.368800
     20 H3          -2.4010    -0.8850     0.9330 h1         1 JFQ       0.048700
     21 H3A         -2.4010     0.8840     0.9330 h1         1 JFQ       0.048700
     22 H4          -4.3850     0.5860     2.0430 h1         1 JFQ       0.071700
     23 H5          -4.1100     1.6280     4.2650 hc         1 JFQ       0.075450
     24 H5A         -4.0910     0.0220     5.0140 hc         1 JFQ       0.075450
     25 H6          -6.3840     1.1950     3.4000 hc         1 JFQ       0.070450
     26 H6A         -6.3370     1.0410     5.1650 hc         1 JFQ       0.070450
     27 H7          -6.1280    -1.4110     4.9420 hx         1 JFQ       0.120700
     28 H8          -6.4030    -2.4540     2.7190 hc         1 JFQ       0.070450
     29 H8A         -6.4230    -0.8480     1.9700 hc         1 JFQ       0.070450
     30 H9          -4.1300    -2.0210     3.5840 hc         1 JFQ       0.075450
     31 H9A         -4.1770    -1.8660     1.8190 hc         1 JFQ       0.075450
     32 HN3         -8.2950    -0.4270     5.0200 hn         1 JFQ       0.459133
     33 H13          1.8030     0.7980     0.5040 hn         1 JFQ       0.462800
     34 H32         -8.3200    -1.7630     4.0590 hn         1 JFQ       0.459133
     35 HN3A        -8.3380    -0.2850     3.3920 hn         1 JFQ       0.459133
@<TRIPOS>BOND
     1     1     2 1
     2     1     3 1
     3     3     5 1
     4     4     5 1
     5     4     7 1
     6     6    10 1
     7     7     8 1
     8     7    12 1
     9     8     9 1
    10     9    10 1
    11    10    11 1
    12    11    12 1
    13     1    13 1
    14     1    14 1
    15     2    15 1
    16     2    16 1
    17     3    17 1
    18     3    18 1
    19     4    19 1
    20     5    20 1
    21     5    21 1
    22     6    32 1
    23     6    35 1
    24     7    22 1
    25     8    23 1
    26     8    24 1
    27     9    25 1
    28     9    26 1
    29    10    27 1
    30    11    28 1
    31    11    29 1
    32    12    30 1
    33    12    31 1
    34    33     2 1
    35    34     6 1
@<TRIPOS>SUBSTRUCTURE
     1 JFQ         1 TEMP              0 ****  ****    0 ROOT
