@<TRIPOS>MOLECULE
molecule
   29    31     1     0     0
SMALL
bcc


@<TRIPOS>ATOM
      1 C10          0.0000     0.0000     0.0000 ca         1 JFS       0.008800
      2 C13          1.3860    -0.0010     2.3950 ca         1 JFS      -0.087300
      3 C15          1.3880     0.0000     0.0000 ca         1 JFS      -0.136500
      4 C01         -0.6000     2.1860    -4.7030 ca         1 JFS      -0.145000
      5 C02          0.3200     2.5620    -3.7340 ca         1 JFS      -0.115000
      6 C03          0.3740     1.8980    -2.5270 ca         1 JFS      -0.125000
      7 C04         -0.4980     0.8450    -2.2820 ca         1 JFS      -0.088200
      8 C05         -1.4280     0.4650    -3.2640 ca         1 JFS       0.091400
      9 C06         -1.4680     1.1560    -4.4780 ca         1 JFS      -0.069000
     10 N07         -2.1370    -0.5750    -2.7550 nc         1 JFS      -0.599100
     11 C08         -1.7140    -0.8520    -1.5560 cd         1 JFS       0.437700
     12 N09         -0.7020    -0.0050    -1.2120 na         1 JFS      -0.084400
     13 C11         -0.6920    -0.0000     1.2040 ca         1 JFS      -0.136500
     14 C12          0.0030    -0.0010     2.3980 ca         1 JFS      -0.093500
     15 C14          2.0770     0.0000     1.1970 ca         1 JFS      -0.093500
     16 C16          2.1420    -0.0000     3.6990 c3         1 JFS       0.187700
     17 O17          2.3810    -1.3480     4.1110 oh         1 JFS      -0.603800
     18 H151         1.9300     0.0000    -0.9380 ha         1 JFS       0.145500
     19 H021         1.0020     3.3810    -3.9280 ha         1 JFS       0.132000
     20 H031         1.0930     2.1960    -1.7740 ha         1 JFS       0.131000
     21 H061        -2.1820     0.8710    -5.2410 ha         1 JFS       0.143000
     22 H081        -2.1080    -1.6390    -0.9250 h5         1 JFS       0.077800
     23 H111        -1.7750    -0.0010     1.2070 ha         1 JFS       0.145500
     24 H121        -0.5360    -0.0020     3.3380 ha         1 JFS       0.141000
     25 H141         3.1610     0.0000     1.1980 ha         1 JFS       0.141000
     26 H162         3.0880     0.5100     3.5680 h1         1 JFS       0.027700
     27 H161         1.5570     0.5100     4.4550 h1         1 JFS       0.027700
     28 H171         2.8530    -1.3480     4.9270 ho         1 JFS       0.404000
     29 H011        -0.6310     2.7170    -5.6470 ha         1 JFS       0.133000
@<TRIPOS>BOND
     1    11    10 2
     2    11    12 1
     3     3    15 ar
     4     3     1 ar
     5    10     8 1
     6    15     2 ar
     7    17    16 1
     8    12     1 1
     9    12     7 1
    10     1    13 ar
    11     8     7 ar
    12     8     9 ar
    13     2    16 1
    14     2    14 ar
    15     7     6 ar
    16     9     4 ar
    17    13    14 ar
    18     6     5 ar
    19     4     5 ar
    20     3    18 1
    21     4    29 1
    22     5    19 1
    23     6    20 1
    24     9    21 1
    25    11    22 1
    26    13    23 1
    27    14    24 1
    28    15    25 1
    29    16    26 1
    30    16    27 1
    31    17    28 1
@<TRIPOS>SUBSTRUCTURE
     1 JFS         1 TEMP              0 ****  ****    0 ROOT
