@<TRIPOS>MOLECULE
molecule
   31    32     1     0     0
SMALL
bcc


@<TRIPOS>ATOM
      1 C10          0.0000     0.0000     0.0000 ca         1 JFV       0.198100
      2 C13         -2.7470    -1.1770    -1.0900 ca         1 JFV      -0.130000
      3 C15         -4.8080     0.0490    -1.0250 ca         1 JFV       0.166600
      4 C17         -2.7200     1.2260    -1.0980 ca         1 JFV      -0.130000
      5 C01          4.1550     0.0030    -2.5610 c3         1 JFV       0.142700
      6 C03          2.1430     0.0010    -1.2740 c          1 JFV       0.646700
      7 O04          1.5390     0.0020    -2.3280 o          1 JFV      -0.528000
      8 C05          1.4030     0.0000     0.0000 ca         1 JFV      -0.165600
      9 C06          2.0930     0.0000     1.2150 ca         1 JFV      -0.046000
     10 C07          1.3940    -0.0010     2.4030 ca         1 JFV      -0.185000
     11 C08          0.0090    -0.0010     2.3980 ca         1 JFV      -0.061000
     12 C09         -0.6870     0.0040     1.2060 ca         1 JFV      -0.228000
     13 O11         -0.6820    -0.0000    -1.1720 os         1 JFV      -0.209200
     14 C12         -2.0410     0.0160    -1.1210 ca         1 JFV       0.082100
     15 C14         -4.1270    -1.1620    -1.0430 ca         1 JFV      -0.138000
     16 C16         -4.0990     1.2430    -1.0560 ca         1 JFV      -0.138000
     17 H131        -2.2160    -2.1210    -1.1060 ha         1 JFV       0.146000
     18 H171        -2.1670     2.1580    -1.1220 ha         1 JFV       0.146000
     19 H011         3.8660    -0.8810    -3.1160 h1         1 JFV       0.048033
     20 H012         5.2270    -0.0020    -2.4060 h1         1 JFV       0.048033
     21 H013         3.8750     0.8880    -3.1200 h1         1 JFV       0.048033
     22 H061         3.1770     0.0000     1.2240 ha         1 JFV       0.153000
     23 H071         1.9300    -0.0030     3.3440 ha         1 JFV       0.136000
     24 H081        -0.5320     0.0000     3.3370 ha         1 JFV       0.134000
     25 H091        -1.7700     0.0040     1.2120 ha         1 JFV       0.152000
     26 H141        -4.6780    -2.0940    -1.0190 ha         1 JFV       0.141000
     27 H161        -4.6290     2.1870    -1.0410 ha         1 JFV       0.141000
     28 H182        -6.7330     0.0670    -1.8340 hn         1 JFV       0.429300
     29 H181        -6.6800     0.0750    -0.1020 hn         1 JFV       0.429300
     30 N18         -6.2060     0.0650    -0.9830 nv         1 JFV      -0.992200
     31 O02          3.4910     0.0020    -1.2690 os         1 JFV      -0.435900
@<TRIPOS>BOND
     1    30     3 1
     2    11    10 ar
     3    11    12 ar
     4    15     3 ar
     5    15     2 ar
     6     3    16 ar
     7    10     9 ar
     8    12     1 ar
     9     2    14 ar
    10    16     4 ar
    11    14     4 ar
    12    14    13 1
    13     9     8 ar
    14     1    13 1
    15     1     8 ar
    16     8     6 1
    17     6     7 2
    18     6    31 1
    19    31     5 1
    20     2    17 1
    21     4    18 1
    22     5    19 1
    23     5    20 1
    24     5    21 1
    25     9    22 1
    26    10    23 1
    27    11    24 1
    28    12    25 1
    29    15    26 1
    30    16    27 1
    31    30    28 1
    32    30    29 1
@<TRIPOS>SUBSTRUCTURE
     1 JFV         1 TEMP              0 ****  ****    0 ROOT
