@<TRIPOS>MOLECULE
molecule
   32    32     1     0     0
SMALL
bcc


@<TRIPOS>ATOM
      1 C10          0.0000     0.0000     0.0000 ca         1 JFY      -0.123000
      2 C15         -0.0440     2.5400     4.4190 c3         1 JFY      -0.244300
      3 C02          3.0140    -1.2490    -1.3890 c3         1 JFY      -0.077400
      4 C03          2.1350     0.0010    -1.3060 c3         1 JFY      -0.030400
      5 C04          3.0150     1.2490    -1.3880 c3         1 JFY      -0.085100
      6 C05          1.3830     0.0000     0.0000 ca         1 JFY      -0.069300
      7 C06          2.0780     0.0000     1.1960 ca         1 JFY      -0.123000
      8 C07          1.3920    -0.0000     2.3940 ca         1 JFY      -0.119000
      9 C08          0.0030    -0.0000     2.3980 ca         1 JFY       0.106600
     10 C09         -0.6920     0.0050     1.1950 ca         1 JFY      -0.119000
     11 N11         -0.6940    -0.0010     3.6090 nu         1 JFY      -0.782500
     12 S12         -1.4180     1.3880     4.1480 s6         1 JFY       1.325900
     13 O13         -2.0100     1.0170     5.3850 o          1 JFY      -0.627300
     14 O14         -2.2170     1.8140     3.0520 o          1 JFY      -0.627300
     15 H101        -0.5410     0.0040    -0.9390 ha         1 JFY       0.137000
     16 H152        -0.3810     3.3660     5.0340 h1         1 JFY       0.098700
     17 H153         0.7660     2.0240     4.9210 h1         1 JFY       0.098700
     18 H151         0.3050     2.9180     3.4660 h1         1 JFY       0.098700
     19 H013         3.9900    -2.3310    -2.9690 hc         1 JFY       0.034367
     20 H011         4.5480    -0.6640    -2.7760 hc         1 JFY       0.034367
     21 H012         2.9780    -0.9900    -3.5220 hc         1 JFY       0.034367
     22 H022         3.7760    -1.2060    -0.6200 hc         1 JFY       0.044700
     23 H021         2.4030    -2.1310    -1.2430 hc         1 JFY       0.044700
     24 H031         1.4300     0.0010    -2.1290 hc         1 JFY       0.058700
     25 H043         3.2360     1.4680    -2.4250 hc         1 JFY       0.037367
     26 H042         2.4920     2.0880    -0.9450 hc         1 JFY       0.037367
     27 H041         3.9390     1.0750    -0.8510 hc         1 JFY       0.037367
     28 H061         3.1610    -0.0000     1.1920 ha         1 JFY       0.137000
     29 H071         1.9370    -0.0020     3.3300 ha         1 JFY       0.144500
     30 H091        -1.7750     0.0060     1.1950 ha         1 JFY       0.144500
     31 H111        -0.7820    -0.8480     4.1340 hn         1 JFY       0.464800
     32 C01          3.6810    -1.3130    -2.7650 c3         1 JFY      -0.093100
@<TRIPOS>BOND
     1    13    12 2
     2    14    12 2
     3    12     2 1
     4    12    11 1
     5    11     9 1
     6    10     9 ar
     7    10     1 ar
     8     9     8 ar
     9     1     6 ar
    10     8     7 ar
    11     6     7 ar
    12     6     4 1
    13     5     4 1
    14     4     3 1
    15     3    32 1
    16     1    15 1
    17     2    16 1
    18     2    17 1
    19     2    18 1
    20    32    19 1
    21    32    20 1
    22    32    21 1
    23     3    22 1
    24     3    23 1
    25     4    24 1
    26     5    25 1
    27     5    26 1
    28     5    27 1
    29     7    28 1
    30     8    29 1
    31    10    30 1
    32    11    31 1
@<TRIPOS>SUBSTRUCTURE
     1 JFY         1 TEMP              0 ****  ****    0 ROOT
