@<TRIPOS>MOLECULE
JFY
   32    32     1     0     0
SMALL
bcc


@<TRIPOS>ATOM
      1 C10          0.0000     0.0000     0.0000 ca         1 JFY      -0.093500
      2 C15         -0.0440     2.5400     4.4190 c3         1 JFY       0.013700
      3 C02          3.0140    -1.2490    -1.3890 c3         1 JFY      -0.026400
      4 C03          2.1350     0.0010    -1.3060 c3         1 JFY       0.002600
      5 C04          3.0150     1.2490    -1.3880 c3         1 JFY       0.002900
      6 C05          1.3830     0.0000     0.0000 ca         1 JFY      -0.082300
      7 C06          2.0780     0.0000     1.1960 ca         1 JFY      -0.093500
      8 C07          1.3920    -0.0000     2.3940 ca         1 JFY      -0.100000
      9 C08          0.0030    -0.0000     2.3980 ca         1 JFY       0.034600
     10 C09         -0.6920     0.0050     1.1950 ca         1 JFY      -0.100000
     11 N11         -0.6940    -0.0010     3.6090 nu         1 JFY      -0.432500
     12 S12         -1.4180     1.3880     4.1480 s6         1 JFY       0.949900
     13 O13         -2.0100     1.0170     5.3850 o          1 JFY      -0.583800
     14 O14         -2.2170     1.8140     3.0520 o          1 JFY      -0.583800
     15 H101        -0.5410     0.0040    -0.9390 ha         1 JFY       0.110500
     16 H152        -0.3810     3.3660     5.0340 h1         1 JFY       0.063367
     17 H153         0.7660     2.0240     4.9210 h1         1 JFY       0.063367
     18 H151         0.3050     2.9180     3.4660 h1         1 JFY       0.063367
     19 H013         3.9900    -2.3310    -2.9690 hc         1 JFY       0.002033
     20 H011         4.5480    -0.6640    -2.7760 hc         1 JFY       0.002033
     21 H012         2.9780    -0.9900    -3.5220 hc         1 JFY       0.002033
     22 H022         3.7760    -1.2060    -0.6200 hc         1 JFY       0.016700
     23 H021         2.4030    -2.1310    -1.2430 hc         1 JFY       0.016700
     24 H031         1.4300     0.0010    -2.1290 hc         1 JFY       0.032700
     25 H043         3.2360     1.4680    -2.4250 hc         1 JFY       0.006033
     26 H042         2.4920     2.0880    -0.9450 hc         1 JFY       0.006033
     27 H041         3.9390     1.0750    -0.8510 hc         1 JFY       0.006033
     28 H061         3.1610    -0.0000     1.1920 ha         1 JFY       0.110500
     29 H071         1.9370    -0.0020     3.3300 ha         1 JFY       0.117500
     30 H091        -1.7750     0.0060     1.1950 ha         1 JFY       0.117500
     31 H111        -0.7820    -0.8480     4.1340 hn         1 JFY       0.351800
     32 C01          3.6810    -1.3130    -2.7650 c3         1 JFY       0.002900
@<TRIPOS>BOND
     1     1     6 ar  
     2     1    10 ar  
     3     1    15 1   
     4     2    12 1   
     5     2    16 1   
     6     2    17 1   
     7     2    18 1   
     8     3     4 1   
     9     3    22 1   
    10     3    23 1   
    11     3    32 1   
    12     4     5 1   
    13     4     6 1   
    14     4    24 1   
    15     5    25 1   
    16     5    26 1   
    17     5    27 1   
    18     6     7 ar  
    19     7     8 ar  
    20     7    28 1   
    21     8     9 ar  
    22     8    29 1   
    23     9    10 ar  
    24     9    11 1   
    25    10    30 1   
    26    11    12 1   
    27    11    31 1   
    28    12    13 2   
    29    12    14 2   
    30    19    32 1   
    31    20    32 1   
    32    21    32 1   
@<TRIPOS>SUBSTRUCTURE
     1 JFY         1 TEMP              0 ****  ****    0 ROOT
