@<TRIPOS>MOLECULE
JG1
   46    48     1     0     0
SMALL
bcc


@<TRIPOS>ATOM
      1 N1          0.0340    0.0270   -0.1180 nb        1 JG1     -0.625000
      2 C2          1.3920    0.0470   -0.0160 ca        1 JG1      0.351300
      3 C3          2.0700    0.0680    1.2220 ca        1 JG1     -0.191300
      4 C4          1.3110    0.0690    2.3970 ca        1 JG1     -0.102000
      5 C5         -0.0780    0.0490    2.3080 ca        1 JG1     -0.221300
      6 C6         -0.6660    0.0290    1.0260 ca        1 JG1      0.394200
      7 C7          2.1950    0.0460   -1.2370 cc        1 JG1      0.425400
      8 N8          3.5430    0.0930   -1.4090 nd        1 JG1     -0.353000
      9 N9          3.8120    0.0710   -2.6950 nd        1 JG1     -0.313000
     10 C10         2.6530    0.0090   -3.3900 cc        1 JG1      0.358900
     11 O11         1.5790   -0.0090   -2.4910 os        1 JG1     -0.309800
     12 C12         2.3640   -0.0390   -4.8420 c         1 JG1      0.512600
     13 C13         3.5890   -0.0090   -5.7040 c3        1 JG1     -0.166400
     14 O14         1.2070   -0.0990   -5.2540 o         1 JG1     -0.479100
     15 C15         3.2480   -0.0600   -7.1780 c3        1 JG1     -0.078400
     16 C16         4.5040   -0.0270   -8.0220 c3        1 JG1     -0.078400
     17 C17         4.1680   -0.0800   -9.4970 c3        1 JG1     -0.079400
     18 C18         5.4230   -0.0460  -10.3440 c3        1 JG1     -0.076400
     19 C19         5.0840   -0.1020  -11.8220 c3        1 JG1     -0.037100
     20 C20         6.3050   -0.0380  -12.6700 ca        1 JG1     -0.077300
     21 C21         6.9960    1.1710  -12.8170 ca        1 JG1     -0.127500
     22 C22         8.1360    1.2380  -13.6160 ca        1 JG1     -0.128000
     23 C23         8.5950    0.0990  -14.2770 ca        1 JG1     -0.133000
     24 C24         7.9110   -1.1080  -14.1350 ca        1 JG1     -0.128000
     25 C25         6.7710   -1.1770  -13.3350 ca        1 JG1     -0.127500
     26 H3          3.1690    0.0840    1.2640 ha        1 JG1      0.170000
     27 H4          1.8130    0.0850    3.3760 ha        1 JG1      0.148000
     28 H5         -0.7090    0.0490    3.2070 ha        1 JG1      0.151000
     29 H6         -1.7650    0.0130    0.9060 h4        1 JG1      0.033100
     30 H13         4.2430   -0.8790   -5.4260 hc        1 JG1      0.085700
     31 H13A        4.1660    0.9270   -5.4710 hc        1 JG1      0.085700
     32 H15         2.6640   -0.9930   -7.3950 hc        1 JG1      0.055700
     33 H15A        2.5870    0.8070   -7.4400 hc        1 JG1      0.055700
     34 H16         5.0830    0.9080   -7.8010 hc        1 JG1      0.042200
     35 H16A        5.1620   -0.8950   -7.7550 hc        1 JG1      0.042200
     36 H17         3.5890   -1.0150   -9.7180 hc        1 JG1      0.042700
     37 H17A        3.5090    0.7880   -9.7640 hc        1 JG1      0.042700
     38 H18         6.0820   -0.9130  -10.0760 hc        1 JG1      0.044700
     39 H18A        6.0010    0.8910  -10.1290 hc        1 JG1      0.044700
     40 H19         4.5150   -1.0470  -12.0360 hc        1 JG1      0.048200
     41 H19A        4.4070    0.7570  -12.0800 hc        1 JG1      0.048200
     42 H21         6.6340    2.0710  -12.2970 ha        1 JG1      0.131000
     43 H22         8.6720    2.1920  -13.7270 ha        1 JG1      0.130000
     44 H23         9.4940    0.1530  -14.9080 ha        1 JG1      0.130000
     45 H24         8.2700   -2.0080  -14.6550 ha        1 JG1      0.130000
     46 H25         6.2350   -2.1310  -13.2280 ha        1 JG1      0.131000
@<TRIPOS>BOND
     1    1    2 ar  
     2    1    6 ar  
     3    2    3 ar  
     4    2    7 1   
     5    3    4 ar  
     6    3   26 1   
     7    4    5 ar  
     8    4   27 1   
     9    5    6 ar  
    10    5   28 1   
    11    6   29 1   
    12    7    8 2   
    13    7   11 1   
    14    8    9 1   
    15    9   10 2   
    16   10   11 1   
    17   10   12 1   
    18   12   13 1   
    19   12   14 2   
    20   13   15 1   
    21   13   30 1   
    22   13   31 1   
    23   15   16 1   
    24   15   32 1   
    25   15   33 1   
    26   16   17 1   
    27   16   34 1   
    28   16   35 1   
    29   17   18 1   
    30   17   36 1   
    31   17   37 1   
    32   18   19 1   
    33   18   38 1   
    34   18   39 1   
    35   19   20 1   
    36   19   40 1   
    37   19   41 1   
    38   20   21 ar  
    39   20   25 ar  
    40   21   22 ar  
    41   21   42 1   
    42   22   23 ar  
    43   22   43 1   
    44   23   24 ar  
    45   23   44 1   
    46   24   25 ar  
    47   24   45 1   
    48   25   46 1   
@<TRIPOS>SUBSTRUCTURE
     1 JG1         1 TEMP              0 ****  ****    0 ROOT
