@<TRIPOS>MOLECULE
JG2
   49    51     1     0     0
SMALL
bcc


@<TRIPOS>ATOM
      1 N1          0.4110   -1.2710   -0.1120 nb        1 JG2     -0.637000
      2 O1          2.2220   -0.3310   -5.0860 oh        1 JG2     -0.596800
      3 C2          1.4330   -0.4040    0.1310 ca        1 JG2      0.355300
      4 C3          1.9490   -0.1660    1.4230 ca        1 JG2     -0.192300
      5 C4          1.3830   -0.8530    2.5020 ca        1 JG2     -0.100000
      6 C5          0.3380   -1.7430    2.2690 ca        1 JG2     -0.222300
      7 C6         -0.1100   -1.9140    0.9430 ca        1 JG2      0.395200
      8 C7          2.0310    0.3200   -0.9890 cc        1 JG2      0.422400
      9 N8          3.0390    1.2230   -1.0300 nd        1 JG2     -0.344000
     10 N9          3.2290    1.6070   -2.2810 nd        1 JG2     -0.314000
     11 C10         2.3530    0.9650   -3.0740 cc        1 JG2      0.380700
     12 O11         1.5520    0.1180   -2.2940 os        1 JG2     -0.377800
     13 C12         2.0680    0.9670   -4.5590 c3        1 JG2      0.347300
     14 C13         3.0020    1.9300   -5.3010 c3        1 JG2     -0.045400
     15 O14         0.7310    1.3370   -4.7980 oh        1 JG2     -0.596800
     16 C15         2.7210    1.9360   -6.7880 c3        1 JG2     -0.079400
     17 C16         3.6500    2.8910   -7.5060 c3        1 JG2     -0.078400
     18 C17         3.3740    2.9010   -8.9950 c3        1 JG2     -0.079400
     19 C18         4.3010    3.8550   -9.7160 c3        1 JG2     -0.076400
     20 C19         4.0200    3.8640  -11.2070 c3        1 JG2     -0.037100
     21 C20         4.9460    4.7730  -11.9380 ca        1 JG2     -0.076300
     22 C21         4.4910    5.9940  -12.4460 ca        1 JG2     -0.128000
     23 C22         5.3620    6.8370  -13.1370 ca        1 JG2     -0.128500
     24 C23         6.6930    6.4670  -13.3250 ca        1 JG2     -0.134000
     25 C24         7.1520    5.2500  -12.8210 ca        1 JG2     -0.128500
     26 C25         6.2840    4.4070  -12.1310 ca        1 JG2     -0.128000
     27 HO1         1.6590   -0.9370   -4.5860 ho        1 JG2      0.418000
     28 H3          2.7750    0.5430    1.5790 ha        1 JG2      0.171000
     29 H4          1.7650   -0.6880    3.5210 ha        1 JG2      0.149000
     30 H5         -0.1320   -2.3010    3.0890 ha        1 JG2      0.152000
     31 H6         -0.9370   -2.6110    0.7110 h4        1 JG2      0.032100
     32 H13         2.8530    2.9540   -4.8710 hc        1 JG2      0.071700
     33 H13A        4.0570    1.6060   -5.1040 hc        1 JG2      0.071700
     34 HO14        0.1510    0.7510   -4.2930 ho        1 JG2      0.418000
     35 H15         2.8480    0.8970   -7.1930 hc        1 JG2      0.058700
     36 H15A        1.6530    2.2330   -6.9620 hc        1 JG2      0.058700
     37 H16         3.5210    3.9260   -7.0930 hc        1 JG2      0.040700
     38 H16A        4.7150    2.5920   -7.3230 hc        1 JG2      0.040700
     39 H17         3.5020    1.8660   -9.4070 hc        1 JG2      0.041200
     40 H17A        2.3080    3.2010   -9.1770 hc        1 JG2      0.041200
     41 H18         4.1740    4.8900   -9.3030 hc        1 JG2      0.044700
     42 H18A        5.3670    3.5550   -9.5390 hc        1 JG2      0.044700
     43 H19         2.9560    4.1770  -11.3820 hc        1 JG2      0.047700
     44 H19A        4.1300    2.8220  -11.6120 hc        1 JG2      0.047700
     45 H21         3.4420    6.2910  -12.3010 ha        1 JG2      0.131000
     46 H22         4.9960    7.7950  -13.5340 ha        1 JG2      0.130000
     47 H23         7.3780    7.1320  -13.8700 ha        1 JG2      0.130000
     48 H24         8.2010    4.9550  -12.9690 ha        1 JG2      0.130000
     49 H25         6.6470    3.4470  -11.7340 ha        1 JG2      0.131000
@<TRIPOS>BOND
     1    1    3 ar
     2    1    7 ar
     3    2   13 1
     4    2   27 1
     5    3    4 ar
     6    3    8 1
     7    4    5 ar
     8    4   28 1
     9    5    6 ar
    10    5   29 1
    11    6    7 ar
    12    6   30 1
    13    7   31 1
    14    8    9 2
    15    8   12 1
    16    9   10 1
    17   10   11 2
    18   11   12 1
    19   11   13 1
    20   13   14 1
    21   13   15 1
    22   14   16 1
    23   14   32 1
    24   14   33 1
    25   15   34 1
    26   16   17 1
    27   16   35 1
    28   16   36 1
    29   17   18 1
    30   17   37 1
    31   17   38 1
    32   18   19 1
    33   18   39 1
    34   18   40 1
    35   19   20 1
    36   19   41 1
    37   19   42 1
    38   20   21 1
    39   20   43 1
    40   20   44 1
    41   21   22 ar
    42   21   26 ar
    43   22   23 ar
    44   22   45 1
    45   23   24 ar
    46   23   46 1
    47   24   25 ar
    48   24   47 1
    49   25   26 ar
    50   25   48 1
    51   26   49 1
@<TRIPOS>SUBSTRUCTURE
     1 JG2         1 TEMP              0 ****  ****    0 ROOT
