@<TRIPOS>MOLECULE
molecule
   16    17     1     0     0
SMALL
bcc


@<TRIPOS>ATOM
      1 C01          0.0000     0.0000     0.0000 cc         1 JG4      -0.156000
      2 C02          1.3780     0.0000     0.0000 cc         1 JG4      -0.114000
      3 C03          1.9410     0.0000     1.2280 cd         1 JG4      -0.063600
      4 S04          0.6790     0.0020     2.4520 ss         1 JG4      -0.178800
      5 C05         -0.5670     0.0080     1.2110 cd         1 JG4      -0.061100
      6 C06          3.3880    -0.0010     1.5000 cd         1 JG4       0.484000
      7 N07          3.9710     0.0000     2.7350 na         1 JG4      -0.294900
      8 C08          5.3280    -0.0020     2.5370 cd         1 JG4      -0.269600
      9 C09          5.5340    -0.0030     1.2050 cc         1 JG4       0.315200
     10 N10          4.3430    -0.0080     0.5930 nc         1 JG4      -0.680000
     11 H011        -0.5810     0.0010    -0.9140 ha         1 JG4       0.153000
     12 H021         1.9630    -0.0030    -0.9120 ha         1 JG4       0.172000
     13 H051        -1.6340     0.0100     1.4000 h4         1 JG4       0.173000
     14 H071         3.4970     0.0020     3.6170 hn         1 JG4       0.301700
     15 H081         6.0910    -0.0000     3.3070 h4         1 JG4       0.175000
     16 H091         6.4990    -0.0060     0.7140 h4         1 JG4       0.043100
@<TRIPOS>BOND
     1    10     9 1
     2    10     6 2
     3     4     5 1
     4     4     3 1
     5     9     8 2
     6     5     1 2
     7     3     6 1
     8     3     2 2
     9     6     7 1
    10     1     2 1
    11     8     7 1
    12     1    11 1
    13     2    12 1
    14     5    13 1
    15     7    14 1
    16     8    15 1
    17     9    16 1
@<TRIPOS>SUBSTRUCTURE
     1 JG4         1 TEMP              0 ****  ****    0 ROOT
