@<TRIPOS>MOLECULE
molecule
   73    77     1     0     0
SMALL
bcc


@<TRIPOS>ATOM
      1 Cl           0.0000     0.0000     0.0000 cl         1 JG7      -0.067400
      2 C15          1.7350     0.0000     0.0000 ca         1 JG7       0.131400
      3 C18          2.4260     0.0000     1.1970 ca         1 JG7      -0.170000
      4 C19          3.8150     0.0000     1.1960 ca         1 JG7       0.171600
      5 N16          4.5160    -0.0010     2.4030 nh         1 JG7      -0.598000
      6 C31          5.9670    -0.0000     2.1700 c3         1 JG7       0.164300
      7 C36          6.6970     0.0790     3.5130 c3         1 JG7       0.159800
      8 C32          4.1210    -1.1410     3.2420 c3         1 JG7       0.164300
      9 C37          4.8500    -1.0620     4.5850 c3         1 JG7       0.159800
     10 N25          6.3020    -1.0620     4.3520 n3         1 JG7      -0.734600
     11 C39          7.0380    -1.0620     5.6220 c3         1 JG7       0.160800
     12 C40          6.7910    -2.3830     6.3540 c3         1 JG7      -0.095100
     13 C30          4.5060     0.0000    -0.0100 ca         1 JG7      -0.211000
     14 C22          3.8100     0.0000    -1.2020 ca         1 JG7       0.009000
     15 C6           2.4270    -0.0060    -1.1990 ca         1 JG7      -0.326500
     16 S2           1.5430    -0.0130    -2.7230 sy         1 JG7       1.207300
     17 O23          0.4620     0.8840    -2.5070 o          1 JG7      -0.612300
     18 O24          2.5340     0.2590    -3.7040 o          1 JG7      -0.612300
     19 C5           0.9360    -1.7150    -2.8870 c3         1 JG7      -0.217900
     20 C9          -0.2830    -1.9600    -1.9620 c3         1 JG7       0.134000
     21 C10          0.3160    -1.9520    -4.2890 c3         1 JG7      -0.052400
     22 C7          -0.6960    -3.0880    -4.0330 c3         1 JG7      -0.005300
     23 C13         -0.0820    -4.4140    -4.3980 c          1 JG7       0.661100
     24 O29          0.0600    -5.2700    -3.5520 o          1 JG7      -0.593100
     25 N17          0.3090    -4.6490    -5.6660 ns         1 JG7      -0.540900
     26 C14          0.9060    -5.9380    -6.0230 cx         1 JG7       0.016100
     27 C27          1.3300    -6.1430    -7.4780 cx         1 JG7      -0.132400
     28 C26          0.0970    -6.8650    -6.9320 cx         1 JG7      -0.132400
     29 C20          1.7550    -6.5780    -4.9540 c2         1 JG7       0.470200
     30 N21          2.3190    -5.8520    -4.0640 n2         1 JG7      -0.763100
     31 N3          -1.0220    -3.0660    -2.5990 n          1 JG7      -0.463800
     32 C4          -1.8560    -3.9170    -1.9700 c          1 JG7       0.740100
     33 O28         -1.9930    -3.8540    -0.7660 o          1 JG7      -0.586100
     34 C1          -2.6210    -4.9450    -2.7620 cx         1 JG7      -0.302000
     35 C8          -3.5130    -4.3920    -3.8750 c3         1 JG7       0.653900
     36 F35         -2.7190    -3.9970    -4.9570 f          1 JG7      -0.221633
     37 F34         -4.4090    -5.3830    -4.2920 f          1 JG7      -0.221633
     38 F33         -4.2280    -3.2890    -3.3950 f          1 JG7      -0.221633
     39 C12         -3.1100    -6.1900    -2.0190 cx         1 JG7      -0.077900
     40 C11         -1.9450    -6.2960    -3.0060 cx         1 JG7      -0.077900
     41 H20          1.8880    -7.6530    -4.9400 h4         1 JG7      -0.032200
     42 H22          4.3480    -0.0020    -2.1420 ha         1 JG7       0.162000
     43 H30          5.5890     0.0020    -0.0150 ha         1 JG7       0.147000
     44 H18          1.8860     0.0600     2.1340 ha         1 JG7       0.158000
     45 H311         6.2500    -0.9130     1.6600 h1         1 JG7       0.053700
     46 H312         6.2340     0.8570     1.5640 h1         1 JG7       0.053700
     47 H321         4.3870    -2.0650     2.7420 h1         1 JG7       0.053700
     48 H322         3.0510    -1.1110     3.4110 h1         1 JG7       0.053700
     49 H361         7.7670     0.0470     3.3440 h1         1 JG7       0.046700
     50 H362         6.4320     1.0030     4.0130 h1         1 JG7       0.046700
     51 H371         4.5670    -0.1490     5.0950 h1         1 JG7       0.046700
     52 H372         4.5830    -1.9190     5.1910 h1         1 JG7       0.046700
     53 H391         8.0980    -0.9520     5.4250 h1         1 JG7       0.034700
     54 H392         6.6980    -0.2390     6.2380 h1         1 JG7       0.034700
     55 H401         5.8970    -2.2980     6.9590 hc         1 JG7       0.040700
     56 H402         7.6380    -2.6060     6.9920 hc         1 JG7       0.040700
     57 H403         6.6640    -3.1790     5.6310 hc         1 JG7       0.040700
     58 H5           1.7210    -2.4340    -2.6870 h1         1 JG7       0.128700
     59 H91C         0.0490    -2.2510    -0.9730 h1         1 JG7       0.079200
     60 H92C        -0.9020    -1.0730    -1.9140 h1         1 JG7       0.079200
     61 H101        -0.1910    -1.0610    -4.6380 hc         1 JG7       0.069700
     62 H102         1.0760    -2.2700    -4.9930 hc         1 JG7       0.069700
     63 H7          -1.5930    -2.9180    -4.6150 h1         1 JG7       0.122700
     64 H17          0.1960    -3.9400    -6.3640 hn         1 JG7       0.319500
     65 H271         1.1290    -5.3130    -8.1450 hc         1 JG7       0.083200
     66 H272         2.2060    -6.7630    -7.6270 hc         1 JG7       0.083200
     67 H261         0.2190    -7.9250    -6.7470 hc         1 JG7       0.083200
     68 H262        -0.8580    -6.4760    -7.2650 hc         1 JG7       0.083200
     69 H21          2.8830    -6.2780    -3.3550 hn         1 JG7       0.400400
     70 H121        -4.0520    -6.6000    -2.3630 hc         1 JG7       0.101700
     71 H122        -2.8410    -6.2450    -0.9710 hc         1 JG7       0.101700
     72 H111        -2.1750    -6.7700    -3.9520 hc         1 JG7       0.101700
     73 H112        -0.9640    -6.4150    -2.5610 hc         1 JG7       0.101700
@<TRIPOS>BOND
     1     1     2 1
     2     2     3 ar
     3     2    15 ar
     4     3     4 ar
     5     4     5 1
     6     4    13 ar
     7     5     6 1
     8     5     8 1
     9     6     7 1
    10     7    10 1
    11     8     9 1
    12     9    10 1
    13    10    11 1
    14    11    12 1
    15    13    14 ar
    16    14    15 ar
    17    15    16 1
    18    16    17 2
    19    16    18 2
    20    16    19 1
    21    19    20 1
    22    19    21 1
    23    20    31 1
    24    21    22 1
    25    22    23 1
    26    22    31 1
    27    23    24 2
    28    23    25 1
    29    25    26 1
    30    26    27 1
    31    26    28 1
    32    26    29 1
    33    27    28 1
    34    29    30 2
    35    29    41 1
    36    31    32 1
    37    32    33 2
    38    32    34 1
    39    34    35 1
    40    34    39 1
    41    34    40 1
    42    35    36 1
    43    35    37 1
    44    35    38 1
    45    39    40 1
    46    14    42 1
    47    13    43 1
    48     3    44 1
    49     6    45 1
    50     6    46 1
    51     8    47 1
    52     8    48 1
    53     7    49 1
    54     7    50 1
    55     9    51 1
    56     9    52 1
    57    11    53 1
    58    11    54 1
    59    12    55 1
    60    12    56 1
    61    12    57 1
    62    19    58 1
    63    20    59 1
    64    20    60 1
    65    21    61 1
    66    21    62 1
    67    22    63 1
    68    25    64 1
    69    27    65 1
    70    27    66 1
    71    28    67 1
    72    28    68 1
    73    30    69 1
    74    39    70 1
    75    39    71 1
    76    40    72 1
    77    40    73 1
@<TRIPOS>SUBSTRUCTURE
     1 JG7         1 TEMP              0 ****  ****    0 ROOT
