@<TRIPOS>MOLECULE
JGD
   19    19     1     0     0
SMALL
bcc


@<TRIPOS>ATOM
      1 C01          0.0000     0.0000     0.0000 c3         1 JGD       0.210100
      2 N02          1.4650     0.0000     0.0000 nh         1 JGD      -0.382000
      3 C03          2.1980     0.0000     1.2690 c3         1 JGD       0.210100
      4 C04          2.1610     0.0010    -1.2040 ca         1 JGD       0.103600
      5 C05          1.4830     0.0020    -2.4230 ca         1 JGD      -0.318300
      6 C06          2.2090     0.0030    -3.5950 ca         1 JGD       0.452200
      7 N07          3.5290     0.0030    -3.5730 nb         1 JGD      -0.640000
      8 C08          4.2080     0.0020    -2.4410 ca         1 JGD       0.452200
      9 C09          3.5560     0.0070    -1.2260 ca         1 JGD      -0.318300
     10 H011        -0.3610     0.8850    -0.5100 h1         1 JGD       0.006533
     11 H012        -0.3610    -0.0010     1.0210 h1         1 JGD       0.006533
     12 H013        -0.3610    -0.8840    -0.5110 h1         1 JGD       0.006533
     13 H032         1.4930    -0.0030     2.0930 h1         1 JGD       0.006533
     14 H033         2.8230    -0.8830     1.3260 h1         1 JGD       0.006533
     15 H031         2.8180     0.8860     1.3290 h1         1 JGD       0.006533
     16 H051         0.4000     0.0020    -2.4490 ha         1 JGD       0.122000
     17 H061         1.6900     0.0040    -4.5460 h4         1 JGD      -0.026900
     18 H081         5.2910     0.0040    -2.4660 h4         1 JGD      -0.026900
     19 H091         4.1190     0.0060    -0.3000 ha         1 JGD       0.122000
@<TRIPOS>BOND
     1     1     2 1   
     2     1    10 1   
     3     1    11 1   
     4     1    12 1   
     5     2     3 1   
     6     2     4 1   
     7     3    13 1   
     8     3    14 1   
     9     3    15 1   
    10     4     5 ar  
    11     4     9 ar  
    12     5     6 ar  
    13     5    16 1   
    14     6     7 ar  
    15     6    17 1   
    16     7     8 ar  
    17     8     9 ar  
    18     8    18 1   
    19     9    19 1   
@<TRIPOS>SUBSTRUCTURE
     1 JGD         1 TEMP              0 ****  ****    0 ROOT
