@<TRIPOS>MOLECULE
JGG
   33    34     1     0     0
SMALL
bcc


@<TRIPOS>ATOM
      1 C13          0.0000     0.0000     0.0000 c3         1 JGG       0.194400
      2 C15         -0.0970    -0.9550     2.1990 c3         1 JGG       0.194400
      3 C01          5.8170     0.4760     5.2230 ca         1 JGG      -0.085500
      4 C02          6.1570     0.2030     6.5330 ca         1 JGG      -0.073000
      5 C03          5.5070     0.8710     7.5730 ca         1 JGG       0.034000
      6 C04          4.5160     1.8110     7.2800 ca         1 JGG      -0.073000
      7 C05          4.1870     2.0740     5.9670 ca         1 JGG      -0.085500
      8 C06          4.8350     1.4090     4.9400 ca         1 JGG      -0.106300
      9 C07          4.4730     1.7070     3.5090 c3         1 JGG       0.125300
     10 N08          3.4010     0.8070     3.0780 ns         1 JGG      -0.232900
     11 C09          2.9120     0.8910     1.8250 c          1 JGG       0.597100
     12 O10          3.2980     1.7720     1.0800 o          1 JGG      -0.703100
     13 N11          1.9970     0.0000     1.3970 n          1 JGG      -0.175800
     14 C12          1.5330     0.0000     0.0000 c3         1 JGG       0.020500
     15 O14         -0.4710    -1.0680     0.8240 os         1 JGG      -0.405600
     16 C16          1.4310    -1.0040     2.3130 c3         1 JGG       0.020500
     17 N18          6.1270     0.3900    10.0180 n1         1 JGG      -0.372800
     18 H132        -0.3500    -0.1000    -1.0200 h1         1 JGG       0.015700
     19 H131        -0.3500     0.9420     0.4050 h1         1 JGG       0.015700
     20 H151        -0.4010    -1.8550     2.7200 h1         1 JGG       0.015700
     21 H152        -0.6090    -0.1030     2.6310 h1         1 JGG       0.015700
     22 H011         6.3200    -0.0400     4.4150 ha         1 JGG       0.115000
     23 H021         6.9260    -0.5270     6.7510 ha         1 JGG       0.116000
     24 H041         4.0090     2.3310     8.0830 ha         1 JGG       0.116000
     25 H051         3.4190     2.8030     5.7370 ha         1 JGG       0.115000
     26 H071         4.2620     2.7640     3.4020 h1         1 JGG       0.031200
     27 H072         5.3010     1.4370     2.8640 h1         1 JGG       0.031200
     28 H081         3.1690     0.0050     3.6310 hn         1 JGG       0.178500
     29 H121         1.8830    -0.8960    -0.4980 h1         1 JGG       0.033950
     30 H122         1.8830     0.8690    -0.5440 h1         1 JGG       0.033950
     31 H162         1.7710    -1.9900     2.0240 h1         1 JGG       0.033950
     32 H161         1.7100    -0.8180     3.3430 h1         1 JGG       0.033950
     33 C17          5.8540     0.5920     8.9340 cg         1 JGG       0.226800
@<TRIPOS>BOND
     1     1    14 1   
     2     1    15 1   
     3     1    18 1   
     4     1    19 1   
     5     2    15 1   
     6     2    16 1   
     7     2    20 1   
     8     2    21 1   
     9     3     4 ar  
    10     3     8 ar  
    11     3    22 1   
    12     4     5 ar  
    13     4    23 1   
    14     5     6 ar  
    15     5    33 1   
    16     6     7 ar  
    17     6    24 1   
    18     7     8 ar  
    19     7    25 1   
    20     8     9 1   
    21     9    10 1   
    22     9    26 1   
    23     9    27 1   
    24    10    11 1   
    25    10    28 1   
    26    11    12 2   
    27    11    13 1   
    28    13    14 1   
    29    13    16 1   
    30    14    29 1   
    31    14    30 1   
    32    16    31 1   
    33    16    32 1   
    34    17    33 3   
@<TRIPOS>SUBSTRUCTURE
     1 JGG         1 TEMP              0 ****  ****    0 ROOT
