@<TRIPOS>MOLECULE
molecule
   29    29     1     0     0
SMALL
bcc


@<TRIPOS>ATOM
      1 C10          0.0000     0.0000     0.0000 c          1 JGJ       0.656100
      2 C01          2.2260     1.4370     1.7740 c3         1 JGJ      -0.105100
      3 C02          2.0800     0.0000     1.2690 c3         1 JGJ       0.165000
      4 C03          3.4460    -0.6010     1.0610 ca         1 JGJ      -0.096300
      5 C04          3.9830    -1.4450     2.0150 ca         1 JGJ      -0.122000
      6 C05          5.2370    -1.9950     1.8240 ca         1 JGJ      -0.123500
      7 C06          5.9530    -1.7020     0.6790 ca         1 JGJ      -0.126000
      8 C07          5.4160    -0.8590    -0.2750 ca         1 JGJ      -0.123500
      9 C08          4.1600    -0.3130    -0.0870 ca         1 JGJ      -0.122000
     10 N09          1.3480     0.0000     0.0000 ns         1 JGJ      -0.588900
     11 O11         -0.6060     0.0000     1.0510 o          1 JGJ      -0.578100
     12 C12         -0.7530     0.0060    -1.3050 c3         1 JGJ       0.064400
     13 O13         -2.1590     0.0060    -1.0440 os         1 JGJ      -0.392600
     14 C14         -2.9680     0.0110    -2.2210 c3         1 JGJ       0.126700
     15 H011         2.5080     2.0820     0.9500 hc         1 JGJ       0.046033
     16 H012         1.2840     1.7720     2.1880 hc         1 JGJ       0.046033
     17 H021         1.5350    -0.5850     2.0000 h1         1 JGJ       0.087700
     18 H041         3.4220    -1.6750     2.9120 ha         1 JGJ       0.130000
     19 H051         5.6580    -2.6560     2.5720 ha         1 JGJ       0.131500
     20 H061         6.9370    -2.1320     0.5310 ha         1 JGJ       0.131000
     21 H071         5.9770    -0.6320    -1.1740 ha         1 JGJ       0.131500
     22 H081         3.7390     0.3480    -0.8350 ha         1 JGJ       0.130000
     23 H091         1.8490     0.0180    -0.8660 hn         1 JGJ       0.312500
     24 H121        -0.4920    -0.8760    -1.8770 h1         1 JGJ       0.039700
     25 H122        -0.4910     0.8930    -1.8690 h1         1 JGJ       0.039700
     26 H142        -2.7490    -0.8690    -2.8140 h1         1 JGJ       0.031700
     27 H143        -2.7540     0.9000    -2.8020 h1         1 JGJ       0.031700
     28 H141        -4.0140     0.0060    -1.9400 h1         1 JGJ       0.031700
     29 H013         2.9920     1.4750     2.5400 hc         1 JGJ       0.046033
@<TRIPOS>BOND
     1     7     8 ar
     2     7     6 ar
     3     8     9 ar
     4     6     5 ar
     5     9     4 ar
     6     5     4 ar
     7     4     3 1
     8    11     1 2
     9    12     1 1
    10    12    13 1
    11     1    10 1
    12    13    14 1
    13    10     3 1
    14     3     2 1
    15     2    29 1
    16     2    15 1
    17     2    16 1
    18     3    17 1
    19     5    18 1
    20     6    19 1
    21     7    20 1
    22     8    21 1
    23     9    22 1
    24    10    23 1
    25    12    24 1
    26    12    25 1
    27    14    26 1
    28    14    27 1
    29    14    28 1
@<TRIPOS>SUBSTRUCTURE
     1 JGJ         1 TEMP              0 ****  ****    0 ROOT
