@<TRIPOS>MOLECULE
JGJ
   29    29     1     0     0
SMALL
bcc


@<TRIPOS>ATOM
      1 C10          0.0000     0.0000     0.0000 c          1 JGJ       0.564100
      2 C01          2.2260     1.4370     1.7740 c3         1 JGJ      -0.014100
      3 C02          2.0800     0.0000     1.2690 c3         1 JGJ       0.082000
      4 C03          3.4460    -0.6010     1.0610 ca         1 JGJ      -0.106300
      5 C04          3.9830    -1.4450     2.0150 ca         1 JGJ      -0.095000
      6 C05          5.2370    -1.9950     1.8240 ca         1 JGJ      -0.095000
      7 C06          5.9530    -1.7020     0.6790 ca         1 JGJ      -0.099000
      8 C07          5.4160    -0.8590    -0.2750 ca         1 JGJ      -0.095000
      9 C08          4.1600    -0.3130    -0.0870 ca         1 JGJ      -0.095000
     10 N09          1.3480     0.0000     0.0000 ns         1 JGJ      -0.209900
     11 O11         -0.6060     0.0000     1.0510 o          1 JGJ      -0.619100
     12 C12         -0.7530     0.0060    -1.3050 c3         1 JGJ       0.143400
     13 O13         -2.1590     0.0060    -1.0440 os         1 JGJ      -0.377600
     14 C14         -2.9680     0.0110    -2.2210 c3         1 JGJ       0.248700
     15 H011         2.5080     2.0820     0.9500 hc         1 JGJ       0.013700
     16 H012         1.2840     1.7720     2.1880 hc         1 JGJ       0.013700
     17 H021         1.5350    -0.5850     2.0000 h1         1 JGJ       0.060700
     18 H041         3.4220    -1.6750     2.9120 ha         1 JGJ       0.106500
     19 H051         5.6580    -2.6560     2.5720 ha         1 JGJ       0.104000
     20 H061         6.9370    -2.1320     0.5310 ha         1 JGJ       0.104000
     21 H071         5.9770    -0.6320    -1.1740 ha         1 JGJ       0.104000
     22 H081         3.7390     0.3480    -0.8350 ha         1 JGJ       0.106500
     23 H091         1.8490     0.0180    -0.8660 hn         1 JGJ       0.178500
     24 H121        -0.4920    -0.8760    -1.8770 h1         1 JGJ       0.000200
     25 H122        -0.4910     0.8930    -1.8690 h1         1 JGJ       0.000200
     26 H142        -2.7490    -0.8690    -2.8140 h1         1 JGJ      -0.012633
     27 H143        -2.7540     0.9000    -2.8020 h1         1 JGJ      -0.012633
     28 H141        -4.0140     0.0060    -1.9400 h1         1 JGJ      -0.012633
     29 H013         2.9920     1.4750     2.5400 hc         1 JGJ       0.013700
@<TRIPOS>BOND
     1     1    10 1   
     2     1    11 2   
     3     1    12 1   
     4     2     3 1   
     5     2    15 1   
     6     2    16 1   
     7     2    29 1   
     8     3     4 1   
     9     3    10 1   
    10     3    17 1   
    11     4     5 ar  
    12     4     9 ar  
    13     5     6 ar  
    14     5    18 1   
    15     6     7 ar  
    16     6    19 1   
    17     7     8 ar  
    18     7    20 1   
    19     8     9 ar  
    20     8    21 1   
    21     9    22 1   
    22    10    23 1   
    23    12    13 1   
    24    12    24 1   
    25    12    25 1   
    26    13    14 1   
    27    14    26 1   
    28    14    27 1   
    29    14    28 1   
@<TRIPOS>SUBSTRUCTURE
     1 JGJ         1 TEMP              0 ****  ****    0 ROOT
