@<TRIPOS>MOLECULE
molecule
   33    33     1     0     0
SMALL
bcc


@<TRIPOS>ATOM
      1 C10          0.0000     0.0000     0.0000 ca         1 JGM       0.135100
      2 C01          4.1790     4.1130     2.0550 c3         1 JGM      -0.164100
      3 O03          2.5080     4.1000     3.7220 o          1 JGM      -0.604100
      4 N04          3.2870     2.0960     3.1770 ns         1 JGM      -0.567900
      5 C05          2.3980     1.4400     4.1400 c3         1 JGM       0.138700
      6 C06          2.1430    -0.0010     3.6980 c3         1 JGM      -0.174100
      7 C07          1.3870    -0.0010     2.3940 ca         1 JGM      -0.099300
      8 C08          2.0780     0.0000     1.1960 ca         1 JGM      -0.106500
      9 C09          1.3870     0.0000     0.0000 ca         1 JGM      -0.142000
     10 C11         -0.6910    -0.0000     1.2030 ca         1 JGM      -0.142000
     11 C12          0.0040    -0.0010     2.3980 ca         1 JGM      -0.106500
     12 O13         -0.6810     0.0060    -1.1760 oh         1 JGM      -0.512100
     13 C14          3.0440     1.4410     5.5010 c          1 JGM       0.633100
     14 O15          4.1390     1.9410     5.6530 o          1 JGM      -0.522100
     15 N16          2.4050     0.8870     6.5510 ns         1 JGM      -0.529300
     16 N17          2.9900     0.8880     7.7850 nz         1 JGM      -0.537600
     17 H011         5.1730     3.6900     2.1350 hc         1 JGM       0.074367
     18 H012         4.2200     5.1740     2.2670 hc         1 JGM       0.074367
     19 H013         3.8000     3.9590     1.0510 hc         1 JGM       0.074367
     20 H041         3.9450     1.5540     2.6540 hn         1 JGM       0.344500
     21 H051         1.4570     1.9760     4.1860 h1         1 JGM       0.098700
     22 H062         1.3120     0.6440     3.9590 hc         1 JGM       0.087700
     23 H061         2.0370    -0.8160     4.4040 hc         1 JGM       0.087700
     24 H081         3.1610    -0.0000     1.1960 ha         1 JGM       0.128500
     25 H091         1.9290     0.0000    -0.9380 ha         1 JGM       0.155500
     26 H111        -1.7740     0.0000     1.2070 ha         1 JGM       0.155500
     27 H121        -0.5350    -0.0010     3.3370 ha         1 JGM       0.128500
     28 H131        -0.8240    -0.8810    -1.4610 ho         1 JGM       0.433000
     29 H161         1.4940     0.4920     6.4290 hn         1 JGM       0.383500
     30 H171         3.8630     0.4000     7.7410 hn         1 JGM       0.469467
     31 H172         2.3860     0.4340     8.4410 hn         1 JGM       0.469467
     32 H173         3.1500     1.8320     8.0770 hn         1 JGM       0.469467
     33 C02          3.2640     3.4370     3.0450 c          1 JGM       0.665100
@<TRIPOS>BOND
     1    12     1 1
     2     1    10 ar
     3     1     9 ar
     4    10    11 ar
     5     9     8 ar
     6    11     7 ar
     7     8     7 ar
     8     7     6 1
     9     2    33 1
    10     4    33 1
    11     4     5 1
    12    33     3 2
    13     6     5 1
    14     5    13 1
    15    13    14 2
    16    13    15 1
    17    15    16 1
    18     2    17 1
    19     2    18 1
    20     2    19 1
    21     4    20 1
    22     5    21 1
    23     6    22 1
    24     6    23 1
    25     8    24 1
    26     9    25 1
    27    10    26 1
    28    11    27 1
    29    12    28 1
    30    15    29 1
    31    16    30 1
    32    16    31 1
    33    32    16 1
@<TRIPOS>SUBSTRUCTURE
     1 JGM         1 TEMP              0 ****  ****    0 ROOT
