@<TRIPOS>MOLECULE
molecule
   35    37     1     0     0
SMALL
bcc


@<TRIPOS>ATOM
      1 C10          0.0000     0.0000     0.0000 c3         1 JGP       0.103500
      2 C13          1.3280    -2.1030     2.1400 c3         1 JGP      -0.078900
      3 C15          2.2570     0.0000     1.2170 c3         1 JGP       0.103500
      4 C17          0.4080    -0.3050    -6.8750 c3         1 JGP       0.331200
      5 C01          0.2740     1.0000    -2.5150 ca         1 JGP      -0.107000
      6 C02         -0.4360     1.1180    -3.6900 ca         1 JGP      -0.127000
      7 C03         -0.0750     0.3700    -4.8030 ca         1 JGP       0.068100
      8 C04          1.0100    -0.5060    -4.7340 ca         1 JGP       0.039100
      9 C05          1.7250    -0.6280    -3.5590 ca         1 JGP      -0.061000
     10 C06          1.3610     0.1260    -2.4400 ca         1 JGP      -0.142600
     11 O08          3.3330    -0.1080    -1.2130 o          1 JGP      -0.602100
     12 N09          1.4760     0.0000     0.0000 n          1 JGP      -0.478800
     13 C11         -0.5810    -0.9550     1.0590 c3         1 JGP      -0.097900
     14 C12          0.2210    -2.2330     1.0990 c3         1 JGP      -0.078900
     15 C14          2.5530    -1.4580     1.6450 c3         1 JGP      -0.097900
     16 O16          1.1540    -1.1150    -5.9470 os         1 JGP      -0.322900
     17 O18         -0.6070     0.3070    -6.0570 os         1 JGP      -0.325900
     18 H101        -0.3500    -0.3070    -0.9780 h1         1 JGP       0.054700
     19 H102        -0.3500     1.0040     0.2050 h1         1 JGP       0.054700
     20 H132         1.5820    -3.0950     2.4940 hc         1 JGP       0.042450
     21 H131         0.9480    -1.5220     2.9720 hc         1 JGP       0.042450
     22 H152         1.7010     0.4990     2.0010 h1         1 JGP       0.054700
     23 H151         3.1910     0.5200     1.0440 h1         1 JGP       0.054700
     24 H172         1.0510     0.4580    -7.2960 h2         1 JGP       0.073700
     25 H011        -0.0110     1.5860    -1.6490 ha         1 JGP       0.148000
     26 H021        -1.2780     1.7970    -3.7470 ha         1 JGP       0.147000
     27 H051         2.5670    -1.3070    -3.5040 ha         1 JGP       0.164000
     28 H111        -0.5430    -0.4780     2.0300 hc         1 JGP       0.051700
     29 H112        -1.6090    -1.1860     0.8060 hc         1 JGP       0.051700
     30 H121         0.6620    -2.4130     0.1260 hc         1 JGP       0.042450
     31 H122        -0.4290    -3.0580     1.3650 hc         1 JGP       0.042450
     32 H142         3.2980    -1.4540     2.4320 hc         1 JGP       0.051700
     33 H141         2.9290    -2.0110     0.7930 hc         1 JGP       0.051700
     34 C07          2.1220    -0.0020    -1.1820 c          1 JGP       0.673700
     35 H171        -0.0540    -0.9360    -7.6240 h2         1 JGP       0.073700
@<TRIPOS>BOND
     1    15     3 1
     2    15     2 1
     3     3    12 1
     4    13     1 1
     5    13    14 1
     6     2    14 1
     7     1    12 1
     8    12    34 1
     9    16     8 1
    10    16     4 1
    11     9     8 ar
    12     9    10 ar
    13    34    10 1
    14    34    11 2
    15     8     7 ar
    16    10     5 ar
    17     4    17 1
    18     7    17 1
    19     7     6 ar
    20     5     6 ar
    21     1    18 1
    22     1    19 1
    23     2    20 1
    24     2    21 1
    25     3    22 1
    26     3    23 1
    27     4    35 1
    28     4    24 1
    29     5    25 1
    30     6    26 1
    31     9    27 1
    32    13    28 1
    33    13    29 1
    34    14    30 1
    35    14    31 1
    36    15    32 1
    37    15    33 1
@<TRIPOS>SUBSTRUCTURE
     1 JGP         1 TEMP              0 ****  ****    0 ROOT
