@<TRIPOS>MOLECULE
JGP
   35    37     1     0     0
SMALL
bcc


@<TRIPOS>ATOM
      1 C10          0.0000     0.0000     0.0000 c3         1 JGP       0.039000
      2 C13          1.3280    -2.1030     2.1400 c3         1 JGP      -0.031400
      3 C15          2.2570     0.0000     1.2170 c3         1 JGP       0.039000
      4 C17          0.4080    -0.3050    -6.8750 c3         1 JGP       0.432200
      5 C01          0.2740     1.0000    -2.5150 ca         1 JGP      -0.095000
      6 C02         -0.4360     1.1180    -3.6900 ca         1 JGP      -0.098000
      7 C03         -0.0750     0.3700    -4.8030 ca         1 JGP       0.074100
      8 C04          1.0100    -0.5060    -4.7340 ca         1 JGP       0.046100
      9 C05          1.7250    -0.6280    -3.5590 ca         1 JGP      -0.030000
     10 C06          1.3610     0.1260    -2.4400 ca         1 JGP      -0.150600
     11 O08          3.3330    -0.1080    -1.2130 o          1 JGP      -0.644100
     12 N09          1.4760     0.0000     0.0000 n          1 JGP      -0.136800
     13 C11         -0.5810    -0.9550     1.0590 c3         1 JGP      -0.043400
     14 C12          0.2210    -2.2330     1.0990 c3         1 JGP      -0.031400
     15 C14          2.5530    -1.4580     1.6450 c3         1 JGP      -0.043400
     16 O16          1.1540    -1.1150    -5.9470 os         1 JGP      -0.311900
     17 O18         -0.6070     0.3070    -6.0570 os         1 JGP      -0.313900
     18 H101        -0.3500    -0.3070    -0.9780 h1         1 JGP       0.031450
     19 H102        -0.3500     1.0040     0.2050 h1         1 JGP       0.031450
     20 H132         1.5820    -3.0950     2.4940 hc         1 JGP       0.017700
     21 H131         0.9480    -1.5220     2.9720 hc         1 JGP       0.017700
     22 H152         1.7010     0.4990     2.0010 h1         1 JGP       0.031450
     23 H151         3.1910     0.5200     1.0440 h1         1 JGP       0.031450
     24 H172         1.0510     0.4580    -7.2960 h2         1 JGP       0.016200
     25 H011        -0.0110     1.5860    -1.6490 ha         1 JGP       0.122000
     26 H021        -1.2780     1.7970    -3.7470 ha         1 JGP       0.115000
     27 H051         2.5670    -1.3070    -3.5040 ha         1 JGP       0.130000
     28 H111        -0.5430    -0.4780     2.0300 hc         1 JGP       0.025200
     29 H112        -1.6090    -1.1860     0.8060 hc         1 JGP       0.025200
     30 H121         0.6620    -2.4130     0.1260 hc         1 JGP       0.017700
     31 H122        -0.4290    -3.0580     1.3650 hc         1 JGP       0.017700
     32 H142         3.2980    -1.4540     2.4320 hc         1 JGP       0.025200
     33 H141         2.9290    -2.0110     0.7930 hc         1 JGP       0.025200
     34 C07          2.1220    -0.0020    -1.1820 c          1 JGP       0.605700
     35 H171        -0.0540    -0.9360    -7.6240 h2         1 JGP       0.016200
@<TRIPOS>BOND
     1     1    12 1   
     2     1    13 1   
     3     1    18 1   
     4     1    19 1   
     5     2    14 1   
     6     2    15 1   
     7     2    20 1   
     8     2    21 1   
     9     3    12 1   
    10     3    15 1   
    11     3    22 1   
    12     3    23 1   
    13     4    16 1   
    14     4    17 1   
    15     4    24 1   
    16     4    35 1   
    17     5     6 ar  
    18     5    10 ar  
    19     5    25 1   
    20     6     7 ar  
    21     6    26 1   
    22     7     8 ar  
    23     7    17 1   
    24     8     9 ar  
    25     8    16 1   
    26     9    10 ar  
    27     9    27 1   
    28    10    34 1   
    29    11    34 2   
    30    12    34 1   
    31    13    14 1   
    32    13    28 1   
    33    13    29 1   
    34    14    30 1   
    35    14    31 1   
    36    15    32 1   
    37    15    33 1   
@<TRIPOS>SUBSTRUCTURE
     1 JGP         1 TEMP              0 ****  ****    0 ROOT
