@<TRIPOS>MOLECULE
molecule
   30    32     1     0     0
SMALL
bcc


@<TRIPOS>ATOM
      1 C10          0.0000     0.0000     0.0000 c3         1 JGV       0.063000
      2 C13          1.5760    -1.1230     2.1600 c3         1 JGV       0.120900
      3 C01          4.3670     0.7680    -0.3000 ca         1 JGV      -0.121000
      4 C02          5.7430     0.6790    -0.2870 ca         1 JGV      -0.084000
      5 C03          6.3840    -0.2450    -1.0910 ca         1 JGV      -0.003100
      6 C04          5.6810    -1.1120    -1.9360 ca         1 JGV      -0.061200
      7 C05          4.2880    -1.0120    -1.9420 ca         1 JGV      -0.079000
      8 C06          3.6380    -0.0830    -1.1330 ca         1 JGV      -0.120600
      9 C07          2.1650     0.0020    -1.1560 c          1 JGV       0.677700
     10 O08          1.5770     0.0720    -2.2180 o          1 JGV      -0.596100
     11 N09          1.4720     0.0000     0.0000 n          1 JGV      -0.489800
     12 C11         -0.4830    -1.1230     0.9250 c3         1 JGV       0.120900
     13 O12          0.1530    -0.9910     2.1980 os         1 JGV      -0.419600
     14 C14          2.1640     0.0000     1.2980 c3         1 JGV       0.063000
     15 N15          6.4720    -1.9810    -2.6800 na         1 JGV      -0.222500
     16 N16          7.8220    -1.9240    -2.5350 na         1 JGV      -0.057300
     17 S17          8.0950    -0.6390    -1.3350 ss         1 JGV      -0.235300
     18 H102        -0.3640    -0.1750    -1.0050 h1         1 JGV       0.067950
     19 H101        -0.3640     0.9530     0.3640 h1         1 JGV       0.067950
     20 H131         1.9720    -1.0520     3.1650 h1         1 JGV       0.055700
     21 H132         1.8370    -2.0820     1.7290 h1         1 JGV       0.055700
     22 H021         6.3220     1.3330     0.3540 ha         1 JGV       0.146000
     23 H051         3.7070    -1.6650    -2.5820 ha         1 JGV       0.156000
     24 H111        -0.2270    -2.0820     0.4920 h1         1 JGV       0.055700
     25 H112        -1.5570    -1.0510     1.0490 h1         1 JGV       0.055700
     26 H142         2.0140     0.9530     1.7910 h1         1 JGV       0.067950
     27 H141         3.2230    -0.1750     1.1460 h1         1 JGV       0.067950
     28 H1           8.2410    -1.6620    -3.4060 hn         1 JGV       0.234700
     29 H2           6.1600    -2.9210    -2.5370 hn         1 JGV       0.264700
     30 H011         3.8580     1.4900     0.3290 ha         1 JGV       0.147000
@<TRIPOS>BOND
     1     1    11 1
     2     1    12 1
     3     2    13 1
     4     2    14 1
     5     3     4 ar
     6     3     8 ar
     7     4     5 ar
     8     5     6 ar
     9     5    17 1
    10     6     7 ar
    11     6    15 1
    12     7     8 ar
    13     8     9 1
    14     9    10 2
    15     9    11 1
    16    11    14 1
    17    12    13 1
    18    15    16 1
    19    16    17 1
    20     1    18 1
    21     1    19 1
    22     2    20 1
    23     2    21 1
    24     3    30 1
    25     4    22 1
    26     7    23 1
    27    12    24 1
    28    12    25 1
    29    14    26 1
    30    14    27 1
    31    16    28 1
    32    15    29 1
@<TRIPOS>SUBSTRUCTURE
     1 JGV         1 TEMP              0 ****  ****    0 ROOT
