@<TRIPOS>MOLECULE
JGY
   30    31     1     0     0
SMALL
bcc


@<TRIPOS>ATOM
      1 C10          0.0000     0.0000     0.0000 c3         1 JGY       0.042000
      2 C13          3.4710     0.6360     1.2470 c3         1 JGY      -0.061400
      3 C01         -1.8430    -0.5710    -6.5110 c3         1 JGY      -0.005400
      4 N02         -2.3240    -0.4500    -5.1320 na         1 JGY       0.606400
      5 C03         -3.6240    -0.4180    -4.7690 cc         1 JGY      -0.355300
      6 C04         -3.6610    -0.3000    -3.4200 cd         1 JGY      -0.204300
      7 C05         -2.3070    -0.2630    -3.0070 cd         1 JGY       0.246800
      8 N06         -1.5700    -0.3650    -4.0950 nc         1 JGY      -0.644800
      9 C07         -1.8140    -0.1420    -1.6200 c          1 JGY       0.524600
     10 O08         -2.6040    -0.0610    -0.6990 o          1 JGY      -0.661100
     11 N09         -0.4890    -0.1210    -1.3760 ns         1 JGY      -0.178900
     12 C11          1.5300     0.0000     0.0000 c3         1 JGY       0.162100
     13 C12          2.0690     0.0000     1.4530 c3         1 JGY      -0.051400
     14 C14          3.2120     1.6370     0.1020 c3         1 JGY       0.215400
     15 O15          2.0290     1.2140    -0.5850 os         1 JGY      -0.411600
     16 H101        -0.3610     0.9260     0.4320 h1         1 JGY       0.033200
     17 H102        -0.3610    -0.8360     0.5860 h1         1 JGY       0.033200
     18 H131         4.1910    -0.1150     0.9450 hc         1 JGY       0.023700
     19 H132         3.7930     1.1520     2.1430 hc         1 JGY       0.023700
     20 H013        -2.2140     0.2610    -7.0970 h1         1 JGY       0.027367
     21 H011        -2.1980    -1.5010    -6.9370 h1         1 JGY       0.027367
     22 H012        -0.7590    -0.5620    -6.5170 h1         1 JGY       0.027367
     23 H041        -4.5400    -0.2420    -2.7900 ha         1 JGY       0.149000
     24 H091         0.1610    -0.2150    -2.1310 hn         1 JGY       0.192500
     25 H111         1.9120    -0.8590    -0.5400 h1         1 JGY       0.018700
     26 H122         2.1530    -1.0100     1.8350 hc         1 JGY       0.029700
     27 H121         1.4530     0.6180     2.0940 hc         1 JGY       0.029700
     28 H142         3.0630     2.6300     0.5100 h1         1 JGY       0.004700
     29 H141         4.0520     1.6370    -0.5810 h1         1 JGY       0.004700
     30 H031        -4.4780    -0.4760    -5.4320 h4         1 JGY       0.152000
@<TRIPOS>BOND
     1     1    11 1   
     2     1    12 1   
     3     1    16 1   
     4     1    17 1   
     5     2    13 1   
     6     2    14 1   
     7     2    18 1   
     8     2    19 1   
     9     3     4 1   
    10     3    20 1   
    11     3    21 1   
    12     3    22 1   
    13     4     5 1   
    14     4     8 1   
    15     5     6 2   
    16     5    30 1   
    17     6     7 1   
    18     6    23 1   
    19     7     8 2   
    20     7     9 1   
    21     9    10 2   
    22     9    11 1   
    23    11    24 1   
    24    12    13 1   
    25    12    15 1   
    26    12    25 1   
    27    13    26 1   
    28    13    27 1   
    29    14    15 1   
    30    14    28 1   
    31    14    29 1   
@<TRIPOS>SUBSTRUCTURE
     1 JGY         1 TEMP              0 ****  ****    0 ROOT
