@<TRIPOS>MOLECULE
molecule
   30    31     1     0     0
SMALL
bcc


@<TRIPOS>ATOM
      1 C10          0.0000     0.0000     0.0000 c3         1 JGY       0.117000
      2 C13          3.4710     0.6360     1.2470 c3         1 JGY      -0.118400
      3 C01         -1.8430    -0.5710    -6.5110 c3         1 JGY       0.050600
      4 N02         -2.3240    -0.4500    -5.1320 na         1 JGY       0.143400
      5 C03         -3.6240    -0.4180    -4.7690 cc         1 JGY      -0.189300
      6 C04         -3.6610    -0.3000    -3.4200 cd         1 JGY      -0.252300
      7 C05         -2.3070    -0.2630    -3.0070 cd         1 JGY       0.257800
      8 N06         -1.5700    -0.3650    -4.0950 nc         1 JGY      -0.518800
      9 C07         -1.8140    -0.1420    -1.6200 c          1 JGY       0.607600
     10 O08         -2.6040    -0.0610    -0.6990 o          1 JGY      -0.611100
     11 N09         -0.4890    -0.1210    -1.3760 ns         1 JGY      -0.570900
     12 C11          1.5300     0.0000     0.0000 c3         1 JGY       0.117100
     13 C12          2.0690     0.0000     1.4530 c3         1 JGY      -0.109400
     14 C14          3.2120     1.6370     0.1020 c3         1 JGY       0.130400
     15 O15          2.0290     1.2140    -0.5850 os         1 JGY      -0.417600
     16 H101        -0.3610     0.9260     0.4320 h1         1 JGY       0.060700
     17 H102        -0.3610    -0.8360     0.5860 h1         1 JGY       0.060700
     18 H131         4.1910    -0.1150     0.9450 hc         1 JGY       0.055700
     19 H132         3.7930     1.1520     2.1430 hc         1 JGY       0.055700
     20 H013        -2.2140     0.2610    -7.0970 h1         1 JGY       0.060700
     21 H011        -2.1980    -1.5010    -6.9370 h1         1 JGY       0.060700
     22 H012        -0.7590    -0.5620    -6.5170 h1         1 JGY       0.060700
     23 H041        -4.5400    -0.2420    -2.7900 ha         1 JGY       0.177000
     24 H091         0.1610    -0.2150    -2.1310 hn         1 JGY       0.333500
     25 H111         1.9120    -0.8590    -0.5400 h1         1 JGY       0.051700
     26 H122         2.1530    -1.0100     1.8350 hc         1 JGY       0.060200
     27 H121         1.4530     0.6180     2.0940 hc         1 JGY       0.060200
     28 H142         3.0630     2.6300     0.5100 h1         1 JGY       0.045700
     29 H141         4.0520     1.6370    -0.5810 h1         1 JGY       0.045700
     30 H031        -4.4780    -0.4760    -5.4320 h4         1 JGY       0.175000
@<TRIPOS>BOND
     1     6     5 2
     2     6     7 1
     3     5     4 1
     4    10     9 2
     5     7     9 1
     6     7     8 2
     7     4     3 1
     8     4     8 1
     9     9    11 1
    10    11     1 1
    11     1    12 1
    12    12    13 1
    13    12    15 1
    14    13     2 1
    15    15    14 1
    16     2    14 1
    17     1    16 1
    18     1    17 1
    19     2    18 1
    20     2    19 1
    21     3    20 1
    22     3    21 1
    23     3    22 1
    24     5    30 1
    25     6    23 1
    26    11    24 1
    27    12    25 1
    28    13    26 1
    29    13    27 1
    30    14    28 1
    31    14    29 1
@<TRIPOS>SUBSTRUCTURE
     1 JGY         1 TEMP              0 ****  ****    0 ROOT
