@<TRIPOS>MOLECULE
molecule
   61    64     1     0     0
SMALL
bcc


@<TRIPOS>ATOM
      1 C1           0.0000     0.0000     0.0000 ca         1 JGZ       0.720600
      2 C2           1.3950     0.0000     0.0000 ca         1 JGZ      -0.434600
      3 C3           2.0550     0.0000     1.2150 ca         1 JGZ       0.511200
      4 N4           1.3480    -0.0010     2.3360 nb         1 JGZ      -0.809000
      5 C5           0.0240    -0.0020     2.3040 ca         1 JGZ       0.961900
      6 N6          -0.6440    -0.0010     1.1610 nb         1 JGZ      -0.839000
      7 O7          -0.6880     0.0070    -1.1670 os         1 JGZ      -0.344400
      8 C8          -2.0440     0.0050    -1.1080 ca         1 JGZ       0.117100
      9 N9          -0.6790    -0.0030     3.4970 nu         1 JGZ      -0.799900
     10 C10          0.0430    -0.0030     4.7720 c3         1 JGZ       0.211500
     11 C11         -0.8440     0.6050     5.8610 c3         1 JGZ      -0.362900
     12 C12         -0.1090     0.5460     7.2030 c3         1 JGZ       0.258800
     13 N13          0.2070    -0.8510     7.5280 nh         1 JGZ      -0.768000
     14 C14          1.0960    -1.4420     6.5200 c3         1 JGZ       0.258800
     15 C15          0.3980    -1.4420     5.1590 c3         1 JGZ      -0.362900
     16 C16          0.7610    -0.9540     8.8060 ca         1 JGZ       0.186600
     17 C17          1.1320    -2.1970     9.3060 ca         1 JGZ      -0.176000
     18 C18          1.6790    -2.2950    10.5700 ca         1 JGZ       0.003000
     19 C19          1.8590    -1.1590    11.3370 ca         1 JGZ      -0.373500
     20 C20          1.4920     0.0800    10.8430 ca         1 JGZ       0.003000
     21 C21          0.9480     0.1860     9.5790 ca         1 JGZ      -0.176000
     22 C22         -2.7370     1.2100    -1.0720 ca         1 JGZ      -0.072300
     23 C23         -4.1120     1.2130    -1.0120 ca         1 JGZ      -0.091500
     24 C24         -4.8120     0.0050    -0.9880 ca         1 JGZ      -0.006000
     25 C25         -4.1110    -1.2040    -1.0260 ca         1 JGZ      -0.091500
     26 C26         -2.7360    -1.2000    -1.0910 ca         1 JGZ      -0.072300
     27 C27         -1.9800    -2.5020    -1.1380 c3         1 JGZ      -0.048800
     28 C28         -1.9810     2.5140    -1.0970 c3         1 JGZ      -0.048800
     29 C29         -6.2430     0.0030    -0.9240 cg         1 JGZ       0.235800
     30 N30         -7.3780     0.0040    -0.8930 n1         1 JGZ      -0.353800
     31 S31          2.5580    -1.2900    12.9490 sy         1 JGZ       1.229200
     32 N32          4.2000    -1.1400    12.7870 nz         1 JGZ      -0.810500
     33 O33          2.1210    -0.1450    13.6700 o          1 JGZ      -0.517800
     34 O34          2.3170    -2.6200    13.3860 o          1 JGZ      -0.517800
     35 H2           1.9370     0.0460    -0.9370 ha         1 JGZ       0.162000
     36 H3           3.1370     0.0290     1.2430 h4         1 JGZ       0.034100
     37 HN9         -1.5210    -0.5370     3.5810 hn         1 JGZ       0.433800
     38 H10          0.9510     0.5800     4.6800 h1         1 JGZ       0.097700
     39 H11         -0.3600     0.4720     6.8220 hc         1 JGZ       0.131200
     40 H11A        -1.7960     0.0890     5.8670 hc         1 JGZ       0.131200
     41 H12          0.7430     1.2150     7.1650 h1         1 JGZ       0.096450
     42 H12A        -0.7830     0.8690     7.9860 h1         1 JGZ       0.096450
     43 H14          1.2120    -2.4980     6.7310 h1         1 JGZ       0.096450
     44 H14A         2.0640    -0.9580     6.5790 h1         1 JGZ       0.096450
     45 H15         -0.5020    -2.0440     5.1350 hc         1 JGZ       0.131200
     46 H15A         0.8030    -1.4450     6.1630 hc         1 JGZ       0.131200
     47 H17          0.9910    -3.0860     8.7040 ha         1 JGZ       0.168500
     48 H18          1.9680    -3.2630    10.9610 ha         1 JGZ       0.160000
     49 H20          1.6360     0.9680    11.4460 ha         1 JGZ       0.160000
     50 H21          0.6540     1.1550     9.1940 ha         1 JGZ       0.168500
     51 H23         -4.6500     2.1530    -0.9780 ha         1 JGZ       0.148000
     52 H25         -4.6510    -2.1440    -1.0130 ha         1 JGZ       0.148000
     53 H27         -2.6570    -3.3200    -0.9250 hc         1 JGZ       0.051700
     54 H27A        -1.5510    -2.6350    -2.1240 hc         1 JGZ       0.051700
     55 H27B        -1.1880    -2.4860    -0.3990 hc         1 JGZ       0.051700
     56 H28         -1.0820     2.3990    -1.6920 hc         1 JGZ       0.051700
     57 H28A        -2.6050     3.2850    -1.5330 hc         1 JGZ       0.051700
     58 H28B        -1.7120     2.7950    -0.0860 hc         1 JGZ       0.051700
     59 HN32         4.5780    -0.7120    13.6080 hn         1 JGZ       0.492800
     60 HN3A         4.6060    -2.0470    12.6650 hn         1 JGZ       0.492800
     61 H323         4.4050    -0.5730    11.9890 hn         1 JGZ       0.492800
@<TRIPOS>BOND
     1     1     2 ar
     2     1     6 ar
     3     1     7 1
     4     2     3 ar
     5     3     4 ar
     6     4     5 ar
     7     5     6 ar
     8     5     9 1
     9     7     8 1
    10     8    22 ar
    11     8    26 ar
    12     9    10 1
    13    10    11 1
    14    10    15 1
    15    11    12 1
    16    12    13 1
    17    13    14 1
    18    13    16 1
    19    14    15 1
    20    16    17 ar
    21    16    21 ar
    22    17    18 ar
    23    18    19 ar
    24    19    20 ar
    25    19    31 1
    26    20    21 ar
    27    22    23 ar
    28    22    28 1
    29    23    24 ar
    30    24    25 ar
    31    24    29 1
    32    25    26 ar
    33    26    27 1
    34    29    30 3
    35    31    32 1
    36    31    33 2
    37    31    34 2
    38     2    35 1
    39     3    36 1
    40     9    37 1
    41    10    38 1
    42    11    39 1
    43    11    40 1
    44    12    41 1
    45    12    42 1
    46    14    43 1
    47    14    44 1
    48    15    45 1
    49    15    46 1
    50    17    47 1
    51    18    48 1
    52    20    49 1
    53    21    50 1
    54    23    51 1
    55    25    52 1
    56    27    53 1
    57    27    54 1
    58    27    55 1
    59    28    56 1
    60    28    57 1
    61    28    58 1
    62    32    59 1
    63    32    60 1
    64    61    32 1
@<TRIPOS>SUBSTRUCTURE
     1 JGZ         1 TEMP              0 ****  ****    0 ROOT
