@<TRIPOS>MOLECULE
molecule
   32    33     1     0     0
SMALL
bcc


@<TRIPOS>ATOM
      1 C13          0.0000     0.0000     0.0000 ca         1 JH1      -0.087500
      2 C15          0.0000     0.0000     2.3950 ca         1 JH1       0.140900
      3 C17          2.0740     0.0000     1.1970 ca         1 JH1      -0.087500
      4 C01          3.4620     6.6020    -6.0210 c3         1 JH1      -0.109100
      5 N03          3.9290     4.7840    -4.4530 na         1 JH1       0.076400
      6 C04          3.9280     3.4410    -4.4450 cc         1 JH1      -0.044300
      7 C05          3.2730     3.0350    -3.3000 cd         1 JH1      -0.383900
      8 C06          2.8750     4.2020    -2.6110 cd         1 JH1       0.353200
      9 N07          3.2750     5.2340    -3.3000 nc         1 JH1      -0.513800
     10 C08          3.0420     1.6280    -2.8760 c          1 JH1       0.709700
     11 O09          3.4370     0.7030    -3.5610 o          1 JH1      -0.624100
     12 N10          2.3790     1.3810    -1.7280 ns         1 JH1      -0.583900
     13 C12          1.3820     0.0000     0.0000 ca         1 JH1      -0.134300
     14 C14         -0.6920     0.0000     1.1970 ca         1 JH1      -0.171000
     15 C16          1.3850     0.0010     2.3950 ca         1 JH1      -0.171000
     16 F18         -0.6750     0.0010     3.5660 f          1 JH1      -0.138900
     17 H131        -0.5410    -0.0000    -0.9380 ha         1 JH1       0.143000
     18 H171         3.1580     0.0000     1.1960 ha         1 JH1       0.143000
     19 H012         3.8470     7.1150    -6.8940 hc         1 JH1       0.052033
     20 H013         3.1990     7.3290    -5.2610 hc         1 JH1       0.052033
     21 H011         2.5820     6.0330    -6.2950 hc         1 JH1       0.052033
     22 H021         5.3450     6.1970    -5.0660 h1         1 JH1       0.062200
     23 H022         4.8850     5.0150    -6.2990 h1         1 JH1       0.062200
     24 H041         4.3620     2.7960    -5.1990 h4         1 JH1       0.191000
     25 H061         2.3370     4.2340    -1.6710 h4         1 JH1       0.046100
     26 H101         2.0470     2.1420    -1.1690 hn         1 JH1       0.315500
     27 H111         1.5500    -0.5110    -2.0600 h1         1 JH1       0.059700
     28 H112         3.0820    -0.5100    -1.1750 h1         1 JH1       0.059700
     29 H141        -1.7750    -0.0000     1.1970 ha         1 JH1       0.148000
     30 H161         1.9280     0.0010     3.3320 ha         1 JH1       0.148000
     31 C11          2.1360     0.0000    -1.3050 c3         1 JH1       0.165300
     32 C02          4.5210     5.6340    -5.4880 c3         1 JH1       0.070300
@<TRIPOS>BOND
     1     4    32 1
     2    32     5 1
     3     5     6 1
     4     5     9 1
     5     6     7 2
     6     9     8 2
     7     7    10 1
     8     7     8 1
     9    11    10 2
    10    10    12 1
    11    12    31 1
    12    31    13 1
    13     1    13 ar
    14     1    14 ar
    15    13     3 ar
    16    14     2 ar
    17     3    15 ar
    18     2    15 ar
    19     2    16 1
    20     1    17 1
    21     3    18 1
    22     4    19 1
    23     4    20 1
    24     4    21 1
    25    32    22 1
    26    32    23 1
    27     6    24 1
    28     8    25 1
    29    12    26 1
    30    31    27 1
    31    31    28 1
    32    14    29 1
    33    15    30 1
@<TRIPOS>SUBSTRUCTURE
     1 JH1         1 TEMP              0 ****  ****    0 ROOT
