@<TRIPOS>MOLECULE
JH1
   32    33     1     0     0
SMALL
bcc


@<TRIPOS>ATOM
      1 C13          0.0000     0.0000     0.0000 ca         1 JH1      -0.058000
      2 C15          0.0000     0.0000     2.3950 ca         1 JH1       0.112900
      3 C17          2.0740     0.0000     1.1970 ca         1 JH1      -0.058000
      4 C01          3.4620     6.6020    -6.0210 c3         1 JH1      -0.008100
      5 N03          3.9290     4.7840    -4.4530 na         1 JH1       0.502400
      6 C04          3.9280     3.4410    -4.4450 cc         1 JH1      -0.177300
      7 C05          3.2730     3.0350    -3.3000 cd         1 JH1      -0.401900
      8 C06          2.8750     4.2020    -2.6110 cd         1 JH1       0.414200
      9 N07          3.2750     5.2340    -3.3000 nc         1 JH1      -0.651800
     10 C08          3.0420     1.6280    -2.8760 c          1 JH1       0.642700
     11 O09          3.4370     0.7030    -3.5610 o          1 JH1      -0.664100
     12 N10          2.3790     1.3810    -1.7280 ns         1 JH1      -0.201900
     13 C12          1.3820     0.0000     0.0000 ca         1 JH1      -0.139300
     14 C14         -0.6920     0.0000     1.1970 ca         1 JH1      -0.134500
     15 C16          1.3850     0.0010     2.3950 ca         1 JH1      -0.134500
     16 F18         -0.6750     0.0010     3.5660 f          1 JH1      -0.127900
     17 H131        -0.5410    -0.0000    -0.9380 ha         1 JH1       0.113000
     18 H171         3.1580     0.0000     1.1960 ha         1 JH1       0.113000
     19 H012         3.8470     7.1150    -6.8940 hc         1 JH1       0.016700
     20 H013         3.1990     7.3290    -5.2610 hc         1 JH1       0.016700
     21 H011         2.5820     6.0330    -6.2950 hc         1 JH1       0.016700
     22 H021         5.3450     6.1970    -5.0660 h1         1 JH1       0.030700
     23 H022         4.8850     5.0150    -6.2990 h1         1 JH1       0.030700
     24 H041         4.3620     2.7960    -5.1990 h4         1 JH1       0.161000
     25 H061         2.3370     4.2340    -1.6710 h4         1 JH1       0.001100
     26 H101         2.0470     2.1420    -1.1690 hn         1 JH1       0.178500
     27 H111         1.5500    -0.5110    -2.0600 h1         1 JH1       0.029700
     28 H112         3.0820    -0.5100    -1.1750 h1         1 JH1       0.029700
     29 H141        -1.7750    -0.0000     1.1970 ha         1 JH1       0.121000
     30 H161         1.9280     0.0010     3.3320 ha         1 JH1       0.121000
     31 C11          2.1360     0.0000    -1.3050 c3         1 JH1       0.116300
     32 C02          4.5210     5.6340    -5.4880 c3         1 JH1      -0.011700
@<TRIPOS>BOND
     1     1    13 ar  
     2     1    14 ar  
     3     1    17 1   
     4     2    14 ar  
     5     2    15 ar  
     6     2    16 1   
     7     3    13 ar  
     8     3    15 ar  
     9     3    18 1   
    10     4    19 1   
    11     4    20 1   
    12     4    21 1   
    13     4    32 1   
    14     5     6 1   
    15     5     9 1   
    16     5    32 1   
    17     6     7 2   
    18     6    24 1   
    19     7     8 1   
    20     7    10 1   
    21     8     9 2   
    22     8    25 1   
    23    10    11 2   
    24    10    12 1   
    25    12    26 1   
    26    12    31 1   
    27    13    31 1   
    28    14    29 1   
    29    15    30 1   
    30    22    32 1   
    31    23    32 1   
    32    27    31 1   
    33    28    31 1   
@<TRIPOS>SUBSTRUCTURE
     1 JH1         1 TEMP              0 ****  ****    0 ROOT
