@<TRIPOS>MOLECULE
molecule
   48    48     1     0     0
SMALL
bcc


@<TRIPOS>ATOM
      1 C1           0.0000     0.0000     0.0000 c          1 JH2       0.640300
      2 O1           1.3490     0.0000     0.0000 os         1 JH2      -0.427900
      3 C2          -0.7340     0.0000     1.2730 ce         1 JH2      -0.246200
      4 O2          -0.6070     0.0060    -1.0530 o          1 JH2      -0.564000
      5 C3          -2.0570     0.1430     1.2780 c2         1 JH2      -0.026400
      6 O3          -5.6630    -0.8740     9.0300 op         1 JH2      -0.377600
      7 C4          -2.8290    -0.0290     2.5610 c3         1 JH2      -0.047200
      8 C5          -3.0440     1.3380     3.2140 c3         1 JH2      -0.046200
      9 C6          -3.8160     1.1660     4.4970 c2         1 JH2      -0.181200
     10 C7          -3.2920     1.5540     5.6330 c2         1 JH2      -0.127400
     11 C8          -4.1130     1.5070     6.8950 c3         1 JH2      -0.038200
     12 C9          -3.8370     0.1960     7.6350 c3         1 JH2      -0.060400
     13 C10         -4.6710     0.1490     8.9170 cx         1 JH2       0.044100
     14 C11         -4.4980    -1.0630     9.8360 cx         1 JH2       0.046800
     15 C12         -3.5030    -2.1440     9.4100 c3         1 JH2      -0.060400
     16 C13         -3.5280    -3.2890    10.4240 c3         1 JH2      -0.091100
     17 C14         -2.7830     0.4790     0.0010 c3         1 JH2      -0.060900
     18 C15         -1.8690     2.0470     5.6770 c3         1 JH2      -0.053900
     19 C16         -4.6300    -0.8400    11.3430 c3         1 JH2      -0.067100
     20 C17          2.0070     0.0010    -1.2950 c3         1 JH2       0.139700
     21 H2          -0.2150    -0.2400     2.1930 ha         1 JH2       0.144000
     22 H4          -2.2710    -0.6670     3.2350 hc         1 JH2       0.057200
     23 H4A         -3.7890    -0.4820     2.3460 hc         1 JH2       0.057200
     24 H5          -2.0840     1.7910     3.4280 hc         1 JH2       0.054700
     25 H5A         -3.6020     1.9760     2.5400 hc         1 JH2       0.054700
     26 H6          -4.8390     0.8120     4.4660 ha         1 JH2       0.129000
     27 H8          -5.1650     1.5660     6.6440 hc         1 JH2       0.051200
     28 H8A         -3.8460     2.3430     7.5310 hc         1 JH2       0.051200
     29 H9          -2.7850     0.1380     7.8860 hc         1 JH2       0.057700
     30 H9A         -4.1040    -0.6400     7.0000 hc         1 JH2       0.057700
     31 H10         -4.9120     1.0750     9.4260 h1         1 JH2       0.089700
     32 H12         -3.7770    -2.5220     8.4320 hc         1 JH2       0.053700
     33 H12A        -2.5060    -1.7220     9.3670 hc         1 JH2       0.053700
     34 H13         -4.5550    -3.5580    10.6400 hc         1 JH2       0.037033
     35 H13A        -3.0090    -4.1470    10.0130 hc         1 JH2       0.037033
     36 H13B        -3.0380    -2.9740    11.3370 hc         1 JH2       0.037033
     37 H14         -2.7030    -0.3520    -0.6900 hc         1 JH2       0.057700
     38 H14A        -3.8280     0.6680     0.2180 hc         1 JH2       0.057700
     39 H14B        -2.3420     1.3620    -0.4440 hc         1 JH2       0.057700
     40 H15         -1.2050     1.2670     5.3230 hc         1 JH2       0.042367
     41 H15A        -1.7690     2.9200     5.0450 hc         1 JH2       0.042367
     42 H15B        -1.6080     2.3070     6.6960 hc         1 JH2       0.042367
     43 H16         -3.6440    -0.7820    11.7880 hc         1 JH2       0.046033
     44 H16A        -5.1630     0.0860    11.5250 hc         1 JH2       0.046033
     45 H16B        -5.1780    -1.6640    11.7830 hc         1 JH2       0.046033
     46 H17          1.7060    -0.8770    -1.8540 h1         1 JH2       0.047700
     47 H17A         1.7260     0.8920    -1.8420 h1         1 JH2       0.047700
     48 H17B         3.0810    -0.0130    -1.1530 h1         1 JH2       0.047700
@<TRIPOS>BOND
     1     1     2 1
     2     1     3 1
     3     1     4 2
     4     2    20 1
     5     3     5 2
     6     5     7 1
     7     5    17 1
     8     6    13 1
     9     6    14 1
    10     7     8 1
    11     8     9 1
    12     9    10 2
    13    10    11 1
    14    10    18 1
    15    11    12 1
    16    12    13 1
    17    13    14 1
    18    14    15 1
    19    14    19 1
    20    15    16 1
    21     3    21 1
    22     7    22 1
    23     7    23 1
    24     8    24 1
    25     8    25 1
    26     9    26 1
    27    11    27 1
    28    11    28 1
    29    12    29 1
    30    12    30 1
    31    13    31 1
    32    15    32 1
    33    15    33 1
    34    16    34 1
    35    16    35 1
    36    16    36 1
    37    17    37 1
    38    17    38 1
    39    17    39 1
    40    18    40 1
    41    18    41 1
    42    18    42 1
    43    19    43 1
    44    19    44 1
    45    19    45 1
    46    20    46 1
    47    20    47 1
    48    20    48 1
@<TRIPOS>SUBSTRUCTURE
     1 JH2         1 TEMP              0 ****  ****    0 ROOT
