@<TRIPOS>MOLECULE
JH2
   48    48     1     0     0
SMALL
bcc


@<TRIPOS>ATOM
      1 C1         -0.1080   -0.0220   -0.5580 c         1 JH2      0.634300
      2 O1          0.8870   -0.9570   -0.7130 os        1 JH2     -0.438900
      3 C2         -0.9940   -0.3240    0.5640 ce        1 JH2     -0.241200
      4 O2         -0.1300    0.9220   -1.3560 o         1 JH2     -0.555000
      5 C3         -2.0380    0.4540    0.9080 c2        1 JH2     -0.008400
      6 O3         -5.0630   -1.5650    9.0630 os        1 JH2     -0.403600
      7 C4         -2.9120    0.0800    2.0580 c3        1 JH2     -0.059200
      8 C5         -2.6960    1.0060    3.2420 c3        1 JH2     -0.042200
      9 C6         -3.5940    0.6730    4.3720 c2        1 JH2     -0.175200
     10 C7         -3.5010    1.2490    5.5820 c2        1 JH2     -0.118400
     11 C8         -4.4410    0.8940    6.6830 c3        1 JH2     -0.039200
     12 C9         -3.7390    0.1230    7.7860 c3        1 JH2     -0.072400
     13 C10        -4.6780   -0.1890    8.9110 cx        1 JH2      0.066100
     14 C11        -4.2660   -0.9800   10.1150 cx        1 JH2      0.077800
     15 C12        -2.8720   -1.5270   10.2600 c3        1 JH2     -0.063400
     16 C13        -2.8710   -2.9910   10.6230 c3        1 JH2     -0.091100
     17 C14        -2.3920    1.6920    0.1780 c3        1 JH2     -0.084900
     18 C15        -2.4740    2.2730    5.8900 c3        1 JH2     -0.060900
     19 C16        -4.9930   -0.7580   11.4060 c3        1 JH2     -0.085100
     20 C17         1.8010   -0.7430   -1.7880 c3        1 JH2      0.127700
     21 H2         -0.7470   -1.2450    1.1170 ha        1 JH2      0.155000
     22 H4         -3.9850    0.1350    1.7290 hc        1 JH2      0.057700
     23 H4A        -2.7130   -0.9790    2.3760 hc        1 JH2      0.057700
     24 H5         -1.6240    0.9430    3.5780 hc        1 JH2      0.054200
     25 H5A        -2.8740    2.0710    2.9250 hc        1 JH2      0.054200
     26 H6         -4.3660   -0.0880    4.1710 ha        1 JH2      0.126000
     27 H8         -4.8810    1.8390    7.1050 hc        1 JH2      0.049700
     28 H8A        -5.2930    0.2770    6.2890 hc        1 JH2      0.049700
     29 H9         -2.8830    0.7310    8.1850 hc        1 JH2      0.058700
     30 H9A        -3.3160   -0.8280    7.3650 hc        1 JH2      0.058700
     31 H10        -5.5280    0.5190    9.0120 h1        1 JH2      0.084700
     32 H12        -2.3420   -0.9340   11.0520 hc        1 JH2      0.049700
     33 H12A       -2.3090   -1.3860    9.2990 hc        1 JH2      0.049700
     34 H13        -1.8250   -3.3820   10.6350 hc        1 JH2      0.039700
     35 H13A       -3.3200   -3.1510   11.6330 hc        1 JH2      0.039700
     36 H13B       -3.4650   -3.5740    9.8780 hc        1 JH2      0.039700
     37 H14        -2.6190    1.4530   -0.8940 hc        1 JH2      0.062033
     38 H14A       -1.5250    2.4020    0.1760 hc        1 JH2      0.062033
     39 H14B       -3.2770    2.2000    0.6310 hc        1 JH2      0.062033
     40 H15        -2.6480    2.7380    6.8910 hc        1 JH2      0.042367
     41 H15A       -2.4830    3.0820    5.1160 hc        1 JH2      0.042367
     42 H15B       -1.4540    1.8090    5.8890 hc        1 JH2      0.042367
     43 H16        -4.4870    0.0510   11.9860 hc        1 JH2      0.048367
     44 H16A       -6.0530   -0.4620   11.2180 hc        1 JH2      0.048367
     45 H16B       -4.9900   -1.6950   12.0140 hc        1 JH2      0.048367
     46 H17         2.5020   -1.6110   -1.7160 h1        1 JH2      0.049367
     47 H17A        1.2520   -0.7390   -2.7600 h1        1 JH2      0.049367
     48 H17B        2.3350    0.2280   -1.6480 h1        1 JH2      0.049367
@<TRIPOS>BOND
     1    1    2 1   
     2    1    3 1   
     3    1    4 2   
     4    2   20 1   
     5    3    5 2   
     6    3   21 1   
     7    5    7 1   
     8    5   17 1   
     9    6   13 1   
    10    6   14 1   
    11    7    8 1   
    12    7   22 1   
    13    7   23 1   
    14    8    9 1   
    15    8   24 1   
    16    8   25 1   
    17    9   10 2   
    18    9   26 1   
    19   10   11 1   
    20   10   18 1   
    21   11   12 1   
    22   11   27 1   
    23   11   28 1   
    24   12   13 1   
    25   12   29 1   
    26   12   30 1   
    27   13   14 1   
    28   13   31 1   
    29   14   15 1   
    30   14   19 1   
    31   15   16 1   
    32   15   32 1   
    33   15   33 1   
    34   16   34 1   
    35   16   35 1   
    36   16   36 1   
    37   17   37 1   
    38   17   38 1   
    39   17   39 1   
    40   18   40 1   
    41   18   41 1   
    42   18   42 1   
    43   19   43 1   
    44   19   44 1   
    45   19   45 1   
    46   20   46 1   
    47   20   47 1   
    48   20   48 1   
@<TRIPOS>SUBSTRUCTURE
     1 JH2         1 TEMP              0 ****  ****    0 ROOT
