@<TRIPOS>MOLECULE
JH3
   45    45     1     0     0
SMALL
bcc


@<TRIPOS>ATOM
      1 C1          0.4930   -0.0090    0.1890 c         1 JH3      0.634300
      2 O2          1.2140    0.9270    0.5530 o         1 JH3     -0.555000
      3 O1          0.1050   -0.9160    1.1430 os        1 JH3     -0.438900
      4 CM          0.5780   -0.6870    2.4700 c3        1 JH3      0.127700
      5 C2         -0.0350   -0.3250   -1.1360 ce        1 JH3     -0.241200
      6 C3          0.2100    0.4270   -2.2260 c2        1 JH3     -0.008400
      7 C3'         1.0460    1.6490   -2.1880 c3        1 JH3     -0.084900
      8 C4         -0.3510    0.0400   -3.5540 c3        1 JH3     -0.059200
      9 C5         -1.4630    0.9810   -3.9820 c3        1 JH3     -0.042200
     10 C6         -1.9940    0.6330   -5.3200 c2        1 JH3     -0.175200
     11 C7         -3.0750    1.2190   -5.8590 c2        1 JH3     -0.118400
     12 C7'        -3.8410    2.2690   -5.1450 c3        1 JH3     -0.060900
     13 C8         -3.5600    0.8490   -7.2190 c3        1 JH3     -0.039200
     14 C9         -4.8810    0.1040   -7.1550 c3        1 JH3     -0.072400
     15 CA         -5.3900   -0.2210   -8.5270 cx        1 JH3      0.067100
     16 O3         -5.4650   -1.6160   -8.8660 os        1 JH3     -0.404600
     17 CB         -6.7100   -0.8950   -8.7410 cx        1 JH3      0.075800
     18 CB'        -7.4490   -0.6820  -10.0260 c3        1 JH3     -0.083600
     19 CC         -7.5720   -1.2950   -7.5860 c3        1 JH3     -0.083600
     20 HM          0.1440   -1.5340    3.0560 h1        1 JH3      0.049367
     21 HMA         1.6940   -0.7070    2.4870 h1        1 JH3      0.049367
     22 HMB         0.2080    0.2990    2.8420 h1        1 JH3      0.049367
     23 H2         -0.6570   -1.2340   -1.1850 ha        1 JH3      0.155000
     24 H3'         2.0800    1.3940   -1.8410 hc        1 JH3      0.062033
     25 H3'A        0.6260    2.3810   -1.4510 hc        1 JH3      0.062033
     26 H3'B        1.1090    2.1370   -3.1900 hc        1 JH3      0.062033
     27 H4         -0.7470   -1.0110   -3.5230 hc        1 JH3      0.057700
     28 H4A         0.4750    0.0620   -4.3150 hc        1 JH3      0.057700
     29 H5         -2.2940    0.9490   -3.2240 hc        1 JH3      0.054200
     30 H5A        -1.0780    2.0380   -3.9950 hc        1 JH3      0.054200
     31 H6         -1.4450   -0.1470   -5.8730 ha        1 JH3      0.126000
     32 H7'        -3.1530    3.0700   -4.7740 hc        1 JH3      0.042700
     33 H7'A       -4.6060    2.7400   -5.8090 hc        1 JH3      0.042700
     34 H7'B       -4.3650    1.8290   -4.2590 hc        1 JH3      0.042700
     35 H8         -2.8020    0.2080   -7.7450 hc        1 JH3      0.049200
     36 H8A        -3.6840    1.7850   -7.8290 hc        1 JH3      0.049200
     37 H9         -5.6440    0.7340   -6.6240 hc        1 JH3      0.058700
     38 H9A        -4.7500   -0.8410   -6.5640 hc        1 JH3      0.058700
     39 HA         -4.9750    0.4090   -9.3410 h1        1 JH3      0.085700
     40 HB'        -8.1820    0.1510   -9.9030 hc        1 JH3      0.048867
     41 HB'A       -6.7440   -0.4280  -10.8530 hc        1 JH3      0.048867
     42 HB'B       -8.0020   -1.6110  -10.3070 hc        1 JH3      0.048867
     43 HC         -8.2620   -0.4560   -7.3250 hc        1 JH3      0.048867
     44 HCA        -6.9510   -1.5470   -6.6920 hc        1 JH3      0.048867
     45 HCB        -8.1810   -2.1920   -7.8570 hc        1 JH3      0.048867
@<TRIPOS>BOND
     1    1    2 2   
     2    1    3 1   
     3    1    5 1   
     4    3    4 1   
     5    4   20 1   
     6    4   21 1   
     7    4   22 1   
     8    5    6 2   
     9    5   23 1   
    10    6    7 1   
    11    6    8 1   
    12    7   24 1   
    13    7   25 1   
    14    7   26 1   
    15    8    9 1   
    16    8   27 1   
    17    8   28 1   
    18    9   10 1   
    19    9   29 1   
    20    9   30 1   
    21   10   11 2   
    22   10   31 1   
    23   11   12 1   
    24   11   13 1   
    25   12   32 1   
    26   12   33 1   
    27   12   34 1   
    28   13   14 1   
    29   13   35 1   
    30   13   36 1   
    31   14   15 1   
    32   14   37 1   
    33   14   38 1   
    34   15   16 1   
    35   15   17 1   
    36   15   39 1   
    37   16   17 1   
    38   17   18 1   
    39   17   19 1   
    40   18   40 1   
    41   18   41 1   
    42   18   42 1   
    43   19   43 1   
    44   19   44 1   
    45   19   45 1   
@<TRIPOS>SUBSTRUCTURE
     1 JH3         1 TEMP              0 ****  ****    0 ROOT
