@<TRIPOS>MOLECULE
molecule
   45    45     1     0     0
SMALL
bcc


@<TRIPOS>ATOM
      1 C1           0.0000     0.0000     0.0000 c          1 JH3       0.607300
      2 O2           1.2150     0.0000     0.0000 o          1 JH3      -0.603000
      3 O1          -0.6740     0.0000     1.1670 os         1 JH3      -0.406900
      4 CM           0.1160     0.0010     2.3850 c3         1 JH3       0.135700
      5 C2          -0.7350     0.0050    -1.2730 ce         1 JH3      -0.509200
      6 C3          -0.0760     0.1470    -2.4210 c2         1 JH3       0.173600
      7 C3'          1.3940     0.4760    -2.4100 c3         1 JH3      -0.139900
      8 C4          -0.8010    -0.0180    -3.7310 c3         1 JH3      -0.095200
      9 C5          -1.2520     1.3520    -4.2410 c3         1 JH3      -0.090200
     10 C6          -1.9780     1.1860    -5.5520 c2         1 JH3      -0.503200
     11 C7          -3.2220     1.5790    -5.6670 c2         1 JH3       0.042600
     12 C7'         -3.9700     2.0730    -4.4560 c3         1 JH3      -0.131900
     13 C8          -3.9040     1.5370    -7.0100 c3         1 JH3      -0.044200
     14 C9          -4.6890     0.2310    -7.1430 c3         1 JH3      -0.059400
     15 CA          -5.3820     0.1890    -8.5070 cx         1 JH3       0.047100
     16 O3          -4.9880    -0.8340    -9.4230 op         1 JH3      -0.372600
     17 CB          -6.2700    -1.0170    -8.8190 cx         1 JH3       0.042800
     18 CB'         -7.5080    -0.7860    -9.6880 c3         1 JH3      -0.069600
     19 CC          -6.4040    -2.1000    -7.7450 c3         1 JH3      -0.069600
     20 HM           0.7040     0.9100     2.4330 h1         1 JH3       0.049367
     21 HMA          0.7770    -0.8570     2.3870 h1         1 JH3       0.049367
     22 HMB         -0.5430    -0.0480     3.2430 h1         1 JH3       0.049367
     23 H2          -0.4700     0.9320    -0.7790 ha         1 JH3       0.258000
     24 H3'          1.5600     1.3720    -1.8240 hc         1 JH3       0.076700
     25 H3'A         1.7360     0.6390    -3.4250 hc         1 JH3       0.076700
     26 H3'B         1.9450    -0.3480    -1.9720 hc         1 JH3       0.076700
     27 H4          -1.6670    -0.6530    -3.5860 hc         1 JH3       0.085700
     28 H4A         -0.1370    -0.4730    -4.4560 hc         1 JH3       0.085700
     29 H5          -0.3860     1.9860    -4.3860 hc         1 JH3       0.062700
     30 H5A         -1.9160     1.8070    -3.5160 hc         1 JH3       0.062700
     31 H6          -2.0840     0.4680    -4.7480 ha         1 JH3       0.332000
     32 H7'         -3.4500     2.9240    -4.0320 hc         1 JH3       0.054033
     33 H7'A        -4.9710     2.3700    -4.7460 hc         1 JH3       0.054033
     34 H7'B        -4.0290     1.2820    -3.7190 hc         1 JH3       0.054033
     35 H8          -3.1600     1.5940    -7.7950 hc         1 JH3       0.066200
     36 H8A         -4.5840     2.3770    -7.0950 hc         1 JH3       0.066200
     37 H9          -5.4330     0.1750    -6.3580 hc         1 JH3       0.058700
     38 H9A         -4.0100    -0.6090    -7.0580 hc         1 JH3       0.058700
     39 HA          -5.6960     1.1180    -8.9690 h1         1 JH3       0.089700
     40 HB'         -7.2600    -0.1070   -10.4950 hc         1 JH3       0.046700
     41 HB'A        -7.8410    -1.7300   -10.0990 hc         1 JH3       0.046700
     42 HB'B        -8.2970    -0.3550    -9.0840 hc         1 JH3       0.046700
     43 HC          -6.8510    -1.6730    -6.8560 hc         1 JH3       0.046700
     44 HCA         -5.4230    -2.4920    -7.5040 hc         1 JH3       0.046700
     45 HCB         -7.0320    -2.9000    -8.1170 hc         1 JH3       0.046700
@<TRIPOS>BOND
     1     1     2 2
     2     1     3 1
     3     1     5 1
     4     3     4 1
     5     4    20 1
     6     4    21 1
     7     4    22 1
     8     5     6 2
     9     5    23 1
    10     6     7 1
    11     6     8 1
    12     7    24 1
    13     7    25 1
    14     7    26 1
    15     8     9 1
    16     8    27 1
    17     8    28 1
    18     9    10 1
    19     9    29 1
    20     9    30 1
    21    10    11 2
    22    10    31 1
    23    11    12 1
    24    11    13 1
    25    12    32 1
    26    12    33 1
    27    12    34 1
    28    13    14 1
    29    13    35 1
    30    13    36 1
    31    14    15 1
    32    14    37 1
    33    14    38 1
    34    15    16 1
    35    15    17 1
    36    15    39 1
    37    16    17 1
    38    17    18 1
    39    17    19 1
    40    18    40 1
    41    18    41 1
    42    18    42 1
    43    19    43 1
    44    19    44 1
    45    19    45 1
@<TRIPOS>SUBSTRUCTURE
     1 JH3         1 TEMP              0 ****  ****    0 ROOT
