@<TRIPOS>MOLECULE
JH5
   37    39     1     0     0
SMALL
bcc


@<TRIPOS>ATOM
      1 C2           0.0000     0.0000     0.0000 c3         1 JH5       0.273100
      2 C4          -6.4910    -2.7800    -2.3790 ca         1 JH5      -0.066000
      3 C5          -5.5610    -3.5430    -1.6980 ca         1 JH5      -0.183300
      4 CAA         -7.7560    -2.6000    -1.8530 ca         1 JH5      -0.088500
      5 CAB         -8.0920    -3.1840    -0.6460 ca         1 JH5      -0.053000
      6 CAC         -7.1620    -3.9470     0.0360 ca         1 JH5      -0.088500
      7 CAD         -5.8960    -4.1280    -0.4910 ca         1 JH5      -0.066000
      8 CAK          2.5030     0.0000     0.0000 ca         1 JH5      -0.072000
      9 CAL          3.7170     0.0000     0.6600 ca         1 JH5      -0.090500
     10 CAM          3.7520     0.0010     2.0430 ca         1 JH5      -0.057000
     11 CAN          2.5730     0.0020     2.7640 ca         1 JH5      -0.090500
     12 CAO          1.3580     0.0020     2.1030 ca         1 JH5      -0.072000
     13 CAP          1.3240     0.0010     0.7210 ca         1 JH5      -0.164300
     14 CAQ         -2.4760    -0.7050    -1.3470 cc         1 JH5       0.272400
     15 NAQ         -1.6390    -1.6380    -0.8900 na         1 JH5       0.543300
     16 CAR         -2.1180    -2.8300    -1.1490 cc         1 JH5      -0.409600
     17 NAS         -3.2960    -2.6750    -1.7910 na         1 JH5       0.588400
     18 NAT         -3.5040    -1.2910    -1.9060 n2         1 JH5      -0.531800
     19 C3          -4.1810    -3.7390    -2.2720 c3         1 JH5       0.049600
     20 N4          -0.4290    -1.3810    -0.2310 nu         1 JH5      -0.648500
     21 H21C         0.1060     0.5090    -0.9500 h1         1 JH5       0.023200
     22 H22C        -0.7400     0.5120     0.6030 h1         1 JH5       0.023200
     23 H4           0.1560    -2.1420     0.0550 hn         1 JH5       0.366800
     24 HAA         -8.4840    -2.0030    -2.3870 ha         1 JH5       0.119000
     25 HAD         -5.1680    -4.7250     0.0430 ha         1 JH5       0.107000
     26 H31C        -3.7930    -4.7010    -1.9590 h1         1 JH5       0.059700
     27 H32C        -4.2310    -3.7050    -3.3540 h1         1 JH5       0.059700
     28 HAB         -9.0830    -3.0430    -0.2330 ha         1 JH5       0.118000
     29 HAC         -7.4250    -4.4050     0.9810 ha         1 JH5       0.119000
     30 HAK          2.4750    -0.0010    -1.0830 ha         1 JH5       0.106500
     31 HAL          4.6410    -0.0010     0.0950 ha         1 JH5       0.118000
     32 HAM          4.7040     0.0010     2.5610 ha         1 JH5       0.117000
     33 HAN          2.6000     0.0030     3.8470 ha         1 JH5       0.118000
     34 HAO          0.4340     0.0020     2.6680 ha         1 JH5       0.106500
     35 HAQ         -2.3280     0.3650    -1.2690 h5         1 JH5       0.075100
     36 HAR         -1.6510    -3.7730    -0.8930 h5         1 JH5       0.211000
     37 HA          -6.2270    -2.3220    -3.3250 ha         1 JH5       0.107000
@<TRIPOS>BOND
     1     1    13 1   
     2     1    20 1   
     3     1    21 1   
     4     1    22 1   
     5     2     3 ar  
     6     2     4 ar  
     7     2    37 1   
     8     3     7 ar  
     9     3    19 1   
    10     4     5 ar  
    11     4    24 1   
    12     5     6 ar  
    13     5    28 1   
    14     6     7 ar  
    15     6    29 1   
    16     7    25 1   
    17     8     9 ar  
    18     8    13 ar  
    19     8    30 1   
    20     9    10 ar  
    21     9    31 1   
    22    10    11 ar  
    23    10    32 1   
    24    11    12 ar  
    25    11    33 1   
    26    12    13 ar  
    27    12    34 1   
    28    14    15 1   
    29    14    18 2   
    30    14    35 1   
    31    15    16 2   
    32    15    20 1   
    33    16    17 1   
    34    16    36 1   
    35    17    18 1   
    36    17    19 1   
    37    19    26 1   
    38    19    27 1   
    39    20    23 1   
@<TRIPOS>SUBSTRUCTURE
     1 JH5         1 TEMP              0 ****  ****    0 ROOT
