@<TRIPOS>MOLECULE
molecule
   37    39     1     0     0
SMALL
bcc


@<TRIPOS>ATOM
      1 C2           0.0000     0.0000     0.0000 c3         1 JH5       0.297100
      2 C4          -6.4910    -2.7800    -2.3790 ca         1 JH5      -0.093500
      3 C5          -5.5610    -3.5430    -1.6980 ca         1 JH5      -0.162300
      4 CAA         -7.7560    -2.6000    -1.8530 ca         1 JH5      -0.121000
      5 CAB         -8.0920    -3.1840    -0.6460 ca         1 JH5      -0.085000
      6 CAC         -7.1620    -3.9470     0.0360 ca         1 JH5      -0.121000
      7 CAD         -5.8960    -4.1280    -0.4910 ca         1 JH5      -0.093500
      8 CAK          2.5030     0.0000     0.0000 ca         1 JH5      -0.100000
      9 CAL          3.7170     0.0000     0.6600 ca         1 JH5      -0.122500
     10 CAM          3.7520     0.0010     2.0430 ca         1 JH5      -0.089000
     11 CAN          2.5730     0.0020     2.7640 ca         1 JH5      -0.122500
     12 CAO          1.3580     0.0020     2.1030 ca         1 JH5      -0.100000
     13 CAP          1.3240     0.0010     0.7210 ca         1 JH5      -0.148300
     14 CAQ         -2.4760    -0.7050    -1.3470 cc         1 JH5       0.420400
     15 NAQ         -1.6390    -1.6380    -0.8900 na         1 JH5       0.098300
     16 CAR         -2.1180    -2.8300    -1.1490 cc         1 JH5      -0.055600
     17 NAS         -3.2960    -2.6750    -1.7910 na         1 JH5       0.132400
     18 NAT         -3.5040    -1.2910    -1.9060 n2         1 JH5      -0.427800
     19 C3          -4.1810    -3.7390    -2.2720 c3         1 JH5       0.118600
     20 N4          -0.4290    -1.3810    -0.2310 nu         1 JH5      -0.845500
     21 H21C         0.1060     0.5090    -0.9500 h1         1 JH5       0.055700
     22 H22C        -0.7400     0.5120     0.6030 h1         1 JH5       0.055700
     23 H4           0.1560    -2.1420     0.0550 hn         1 JH5       0.496800
     24 HAA         -8.4840    -2.0030    -2.3870 ha         1 JH5       0.151000
     25 HAD         -5.1680    -4.7250     0.0430 ha         1 JH5       0.134000
     26 H31C        -3.7930    -4.7010    -1.9590 h1         1 JH5       0.096200
     27 H32C        -4.2310    -3.7050    -3.3540 h1         1 JH5       0.096200
     28 HAB         -9.0830    -3.0430    -0.2330 ha         1 JH5       0.151000
     29 HAC         -7.4250    -4.4050     0.9810 ha         1 JH5       0.151000
     30 HAK          2.4750    -0.0010    -1.0830 ha         1 JH5       0.136500
     31 HAL          4.6410    -0.0010     0.0950 ha         1 JH5       0.150000
     32 HAM          4.7040     0.0010     2.5610 ha         1 JH5       0.151000
     33 HAN          2.6000     0.0030     3.8470 ha         1 JH5       0.150000
     34 HAO          0.4340     0.0020     2.6680 ha         1 JH5       0.136500
     35 HAQ         -2.3280     0.3650    -1.2690 h5         1 JH5       0.123100
     36 HAR         -1.6510    -3.7730    -0.8930 h5         1 JH5       0.252000
     37 HA          -6.2270    -2.3220    -3.3250 ha         1 JH5       0.134000
@<TRIPOS>BOND
     1     1    13 1
     2     1    20 1
     3     2     3 ar
     4     2     4 ar
     5     3     7 ar
     6     3    19 1
     7     4     5 ar
     8     5     6 ar
     9     6     7 ar
    10     8     9 ar
    11     8    13 ar
    12     9    10 ar
    13    10    11 ar
    14    11    12 ar
    15    12    13 ar
    16    14    15 1
    17    14    18 2
    18    15    16 2
    19    15    20 1
    20    16    17 1
    21    17    18 1
    22    17    19 1
    23     1    21 1
    24     1    22 1
    25    20    23 1
    26     2    37 1
    27     4    24 1
    28     7    25 1
    29    19    26 1
    30    19    27 1
    31     5    28 1
    32     6    29 1
    33     8    30 1
    34     9    31 1
    35    10    32 1
    36    11    33 1
    37    12    34 1
    38    14    35 1
    39    16    36 1
@<TRIPOS>SUBSTRUCTURE
     1 JH5         1 TEMP              0 ****  ****    0 ROOT
