@<TRIPOS>MOLECULE
molecule
   25    26     1     0     0
SMALL
bcc


@<TRIPOS>ATOM
      1 C10          0.0000     0.0000     0.0000 ca         1 JH7      -0.189500
      2 C13          1.3860     0.0110     2.3980 ca         1 JH7      -0.089000
      3 N02          4.1590     1.1860    -0.6730 na         1 JH7      -0.476400
      4 C03          3.4560     0.1400    -1.2120 cc         1 JH7       0.362000
      5 C04          4.3510    -0.7390    -1.7510 cd         1 JH7      -0.376200
      6 C05          5.6400    -0.2280    -1.5410 c          1 JH7       0.700700
      7 O06          6.6840    -0.7520    -1.8920 o          1 JH7      -0.649500
      8 N07          5.5230     0.9460    -0.8920 ns         1 JH7      -0.405300
      9 N08          2.0900     0.0000    -1.2100 nu         1 JH7      -0.677400
     10 C09          1.3880     0.0000     0.0000 ca         1 JH7       0.174600
     11 C11         -0.6890     0.0060     1.1970 ca         1 JH7      -0.089000
     12 C12          0.0020     0.0120     2.3950 ca         1 JH7      -0.166000
     13 C14          2.0810     0.0000     1.2050 ca         1 JH7      -0.189500
     14 H101        -0.5420    -0.0040    -0.9380 ha         1 JH7       0.138500
     15 H131         1.9240     0.0130     3.3380 ha         1 JH7       0.133500
     16 H013         4.1080     3.2470    -0.3140 h1         1 JH7       0.054367
     17 H011         2.5370     2.4370    -0.2470 h1         1 JH7       0.054367
     18 H012         3.6930     2.2350     1.0760 h1         1 JH7       0.054367
     19 H041         4.1160    -1.2550    -2.6740 ha         1 JH7       0.168000
     20 H071         6.2770     1.5400    -0.6090 hn         1 JH7       0.360500
     21 H081         1.5980    -0.1190    -2.0730 hn         1 JH7       0.466800
     22 H111        -1.7730     0.0060     1.1980 ha         1 JH7       0.133500
     23 H121        -0.5410     0.0180     3.3320 ha         1 JH7       0.133000
     24 H141         3.1640    -0.0000     1.2090 ha         1 JH7       0.138500
     25 C01          3.5870     2.3520     0.0050 c3         1 JH7       0.236100
@<TRIPOS>BOND
     1    12    11 ar
     2    12     2 ar
     3    11     1 ar
     4     2    13 ar
     5     1    10 ar
     6    13    10 ar
     7    10     9 1
     8     5     6 1
     9     5     4 2
    10     7     6 2
    11     6     8 1
    12     9     4 1
    13     4     3 1
    14     8     3 1
    15     3    25 1
    16     1    14 1
    17     2    15 1
    18    25    16 1
    19    25    17 1
    20    25    18 1
    21     5    19 1
    22     8    20 1
    23     9    21 1
    24    11    22 1
    25    12    23 1
    26    13    24 1
@<TRIPOS>SUBSTRUCTURE
     1 JH7         1 TEMP              0 ****  ****    0 ROOT
