@<TRIPOS>MOLECULE
JHA
   32    33     1     0     0
SMALL
bcc


@<TRIPOS>ATOM
      1 C10          0.0000     0.0000     0.0000 ca         1 JHA      -0.106000
      2 C13          1.3820     0.0100     2.4060 ca         1 JHA      -0.009600
      3 C01          7.6440     0.0280     0.2480 c3         1 JHA       0.008900
      4 C02          6.1260     0.0330     0.0530 c3         1 JHA      -0.055700
      5 C03          5.5260    -1.2330     0.6700 c3         1 JHA      -0.024400
      6 C04          4.0030    -1.1920     0.5250 c3         1 JHA       0.150300
      7 N05          3.4770     0.0000     1.2010 nh         1 JHA      -0.395000
      8 C06          4.0030     1.2290     0.5940 c3         1 JHA       0.150300
      9 C07          5.5260     1.2610     0.7410 c3         1 JHA      -0.024400
     10 C08          2.0760     0.0000     1.2010 ca         1 JHA       0.006600
     11 C09          1.3810     0.0000     0.0000 ca         1 JHA      -0.121000
     12 C11         -0.6930     0.0040     1.2020 ca         1 JHA       0.039600
     13 C12          0.0010     0.0090     2.4060 ca         1 JHA      -0.114000
     14 Cl14         2.2500     0.0100     3.9090 cl         1 JHA      -0.008400
     15 N15         -2.0940     0.0040     1.2030 nv         1 JHA      -0.562200
     16 H101        -0.5420    -0.0020    -0.9380 ha         1 JHA       0.110000
     17 H013         7.8710    -0.0030     1.3070 hc         1 JHA       0.002367
     18 H011         8.0670     0.9250    -0.1870 hc         1 JHA       0.002367
     19 H012         8.0670    -0.8430    -0.2380 hc         1 JHA       0.002367
     20 H021         5.8930     0.0630    -1.0050 hc         1 JHA       0.023700
     21 H031         5.7880    -1.2810     1.7210 hc         1 JHA       0.022700
     22 H032         5.9140    -2.1040     0.1560 hc         1 JHA       0.022700
     23 H041         3.5750    -2.0790     0.9770 h1         1 JHA       0.011700
     24 H042         3.7430    -1.1550    -0.5250 h1         1 JHA       0.011700
     25 H061         3.5750     2.0890     1.0950 h1         1 JHA       0.011700
     26 H062         3.7420     1.2520    -0.4570 h1         1 JHA       0.011700
     27 H071         5.7870     1.2490     1.7920 hc         1 JHA       0.022700
     28 H072         5.9140     2.1600     0.2770 hc         1 JHA       0.022700
     29 H091         1.9230    -0.0050    -0.9380 ha         1 JHA       0.113000
     30 H121        -0.5410     0.0140     3.3440 ha         1 JHA       0.120000
     31 H151        -2.5950     0.8710     1.2040 hn         1 JHA       0.274800
     32 H152        -2.5940    -0.8630     1.2110 hn         1 JHA       0.274800
@<TRIPOS>BOND
     1     1    11 ar  
     2     1    12 ar  
     3     1    16 1   
     4     2    10 ar  
     5     2    13 ar  
     6     2    14 1   
     7     3     4 1   
     8     3    17 1   
     9     3    18 1   
    10     3    19 1   
    11     4     5 1   
    12     4     9 1   
    13     4    20 1   
    14     5     6 1   
    15     5    21 1   
    16     5    22 1   
    17     6     7 1   
    18     6    23 1   
    19     6    24 1   
    20     7     8 1   
    21     7    10 1   
    22     8     9 1   
    23     8    25 1   
    24     8    26 1   
    25     9    27 1   
    26     9    28 1   
    27    10    11 ar  
    28    11    29 1   
    29    12    13 ar  
    30    12    15 1   
    31    13    30 1   
    32    15    31 1   
    33    15    32 1   
@<TRIPOS>SUBSTRUCTURE
     1 JHA         1 TEMP              0 ****  ****    0 ROOT
