@<TRIPOS>MOLECULE
molecule
   26    26     1     0     0
SMALL
bcc


@<TRIPOS>ATOM
      1 C10          0.0000     0.0000     0.0000 c3         1 JHD       0.123700
      2 N12          0.8280     1.3710     5.2810 nz         1 JHD      -0.810600
      3 C01          5.6010     0.0050     0.3030 c3         1 JHD       0.119700
      4 O02          4.1800    -0.0000     0.1490 os         1 JHD      -0.288900
      5 C03          3.4360    -0.0030     1.2880 ca         1 JHD       0.176100
      6 C04          4.0600     0.0000     2.5250 ca         1 JHD      -0.190000
      7 C05          3.3020    -0.0040     3.6810 ca         1 JHD      -0.091000
      8 C06          1.9210    -0.0090     3.6060 ca         1 JHD      -0.208300
      9 C07          1.2920    -0.0110     2.3750 ca         1 JHD      -0.177000
     10 C08          2.0460    -0.0030     1.2120 ca         1 JHD       0.134100
     11 O09          1.4300     0.0000     0.0000 os         1 JHD      -0.289900
     12 H103        -0.3610    -0.0140    -1.0210 h1         1 JHD       0.049033
     13 H101        -0.3610    -0.8770     0.5230 h1         1 JHD       0.049033
     14 H102        -0.3610     0.8920     0.4980 h1         1 JHD       0.049033
     15 H121         0.2600     1.8190     4.5890 hn         1 JHD       0.452467
     16 H122         1.6900     1.8690     5.3780 hn         1 JHD       0.452467
     17 H011         5.9010     0.8910     0.8490 h1         1 JHD       0.055033
     18 H012         5.9080    -0.8780     0.8500 h1         1 JHD       0.055033
     19 H013         6.0690     0.0070    -0.6740 h1         1 JHD       0.055033
     20 H041         5.1410     0.0050     2.5870 ha         1 JHD       0.166000
     21 H051         3.7910    -0.0020     4.6470 ha         1 JHD       0.135000
     22 H071         0.2100    -0.0140     2.3190 ha         1 JHD       0.143000
     23 H111         0.1640    -0.5280     4.6900 hx         1 JHD       0.110200
     24 H112         1.6470    -0.5220     5.6540 hx         1 JHD       0.110200
     25 H123         0.3480     1.3740     6.1590 hn         1 JHD       0.452467
     26 C11          1.1000    -0.0130     4.8700 c3         1 JHD       0.166100
@<TRIPOS>BOND
     1     1    11 1
     2    11    10 1
     3     4     3 1
     4     4     5 1
     5    10     5 ar
     6    10     9 ar
     7     5     6 ar
     8     9     8 ar
     9     6     7 ar
    10     8     7 ar
    11     8    26 1
    12     2    26 1
    13     1    12 1
    14     1    13 1
    15     1    14 1
    16     2    15 1
    17     2    16 1
    18     3    17 1
    19     3    18 1
    20     3    19 1
    21     6    20 1
    22     7    21 1
    23     9    22 1
    24    26    23 1
    25    26    24 1
    26    25     2 1
@<TRIPOS>SUBSTRUCTURE
     1 JHD         1 TEMP              0 ****  ****    0 ROOT
