@<TRIPOS>MOLECULE
molecule
   71    74     1     0     0
SMALL
bcc


@<TRIPOS>ATOM
      1 C1           0.0000     0.0000     0.0000 c3         1 JHG       0.136500
      2 C2           1.5430     0.0000     0.0000 c3         1 JHG       0.240500
      3 N3          -0.5100    -1.2060    -0.6660 n7         1 JHG      -0.819200
      4 C4          -1.8580    -0.9810    -1.2030 c3         1 JHG       0.200100
      5 C5          -2.3470    -2.2380    -1.8770 ca         1 JHG      -0.046300
      6 C6          -3.0460    -3.1840    -1.1510 ca         1 JHG      -0.126000
      7 C7          -3.4940    -4.3360    -1.7680 ca         1 JHG      -0.082000
      8 C8          -3.2450    -4.5420    -3.1120 ca         1 JHG      -0.172300
      9 C9          -3.7330    -5.7990    -3.7850 c3         1 JHG       0.674200
     10 F10         -5.0180    -5.5850    -4.2970 f          1 JHG      -0.218633
     11 F11         -2.8650    -6.1360    -4.8300 f          1 JHG      -0.218633
     12 F12         -3.7700    -6.8430    -2.8550 f          1 JHG      -0.218633
     13 C13         -2.5470    -3.5950    -3.8380 ca         1 JHG      -0.082000
     14 C14         -2.1030    -2.4410    -3.2220 ca         1 JHG      -0.126000
     15 C15         -0.4010     0.0010     1.4900 c3         1 JHG       0.105800
     16 N16          0.7710     0.5820     2.1930 n7         1 JHG      -0.788200
     17 C17          1.9440     0.0000     1.4900 c3         1 JHG       0.122800
     18 N18          2.0510     1.2020    -0.6650 n3         1 JHG      -0.799500
     19 C19          1.6020     2.5270    -0.2280 c3         1 JHG       0.236800
     20 C20          2.4890     3.0130     0.9200 c3         1 JHG      -0.102400
     21 C21          1.9580     4.3490     1.4440 c3         1 JHG      -0.028100
     22 C22          2.8320     4.8280     2.5750 ca         1 JHG      -0.089300
     23 C23          3.9260     5.6300     2.3100 ca         1 JHG      -0.124500
     24 C24          4.7280     6.0700     3.3470 ca         1 JHG      -0.124000
     25 C25          4.4350     5.7070     4.6480 ca         1 JHG      -0.125000
     26 C26          3.3410     4.9060     4.9130 ca         1 JHG      -0.124000
     27 C27          2.5370     4.4700     3.8770 ca         1 JHG      -0.124500
     28 S28          3.1340     1.0660    -1.9090 sy         1 JHG       1.402200
     29 O29          3.9400     2.2350    -1.8720 o          1 JHG      -0.606300
     30 O30          3.6690    -0.2500    -1.8340 o          1 JHG      -0.606300
     31 C31          2.2160     1.1420    -3.4110 ca         1 JHG      -0.242500
     32 C32          1.9860     2.3650    -4.0170 ca         1 JHG      -0.017500
     33 C33          1.2680     2.4320    -5.1920 ca         1 JHG      -0.093000
     34 C34          0.7720     1.2630    -5.7710 ca         1 JHG      -0.175600
     35 C35          0.0010     1.3270    -7.0310 c          1 JHG       0.503700
     36 N36         -0.4770     0.1970    -7.5870 nz         1 JHG      -0.679400
     37 O37         -0.2020     2.4000    -7.5660 o          1 JHG      -0.409100
     38 C38          1.0060     0.0330    -5.1550 ca         1 JHG      -0.093000
     39 C39          1.7310    -0.0210    -3.9820 ca         1 JHG      -0.017500
     40 H1          -0.3740     0.8920    -0.4880 h1         1 JHG       0.074700
     41 H2           1.9160    -0.8920    -0.4870 h1         1 JHG       0.102700
     42 HN3         -0.5330    -1.9640    -0.0120 hn         1 JHG       0.370800
     43 H4          -1.8300    -0.1720    -1.9230 h1         1 JHG       0.042200
     44 H4A         -2.5300    -0.7200    -0.3940 h1         1 JHG       0.042200
     45 H6          -3.2670    -3.0090    -0.1050 ha         1 JHG       0.128500
     46 H7          -4.0670    -5.0640    -1.2060 ha         1 JHG       0.147000
     47 H13         -2.3460    -3.7590    -4.8900 ha         1 JHG       0.147000
     48 H14         -2.0180    -1.6780    -3.9860 ha         1 JHG       0.128500
     49 H15         -1.2770     0.6190     1.6440 h1         1 JHG       0.048200
     50 H15A        -0.5800    -1.0120     1.8320 h1         1 JHG       0.048200
     51 HN16         0.7710     0.2810     3.1480 hn         1 JHG       0.362800
     52 H17          2.1220    -1.0120     1.8320 h1         1 JHG       0.063700
     53 H17A         2.8200     0.6180     1.6450 h1         1 JHG       0.063700
     54 H19          0.5740     2.4660     0.1100 h1         1 JHG       0.049200
     55 H19A         1.6690     3.2220    -1.0560 h1         1 JHG       0.049200
     56 H20          2.4790     2.2820     1.7190 hc         1 JHG       0.068700
     57 H20A         3.5030     3.1430     0.5620 hc         1 JHG       0.068700
     58 H21          1.9680     5.0800     0.6450 hc         1 JHG       0.046200
     59 H21A         0.9440     4.2190     1.8020 hc         1 JHG       0.046200
     60 H23          4.1550     5.9150     1.2900 ha         1 JHG       0.129000
     61 H24          5.5850     6.6990     3.1400 ha         1 JHG       0.132500
     62 H25          5.0640     6.0500     5.4610 ha         1 JHG       0.134000
     63 H26          3.1110     4.6230     5.9330 ha         1 JHG       0.132500
     64 H27          1.6800     3.8410     4.0840 ha         1 JHG       0.129000
     65 H32          2.3720     3.2720    -3.5670 ha         1 JHG       0.185500
     66 H33          1.0890     3.3900    -5.6650 ha         1 JHG       0.143500
     67 HN36        -0.9160     0.4150    -8.4600 hn         1 JHG       0.479800
     68 HN3A        -1.1480    -0.2200    -6.9720 hn         1 JHG       0.479800
     69 H38          0.6260    -0.8780    -5.6010 ha         1 JHG       0.143500
     70 H39          1.9150    -0.9760    -3.5030 ha         1 JHG       0.185500
     71 H363         0.2760    -0.4430    -7.7430 hn         1 JHG       0.479800
@<TRIPOS>BOND
     1     1     2 1
     2     1     3 1
     3     1    15 1
     4     2    17 1
     5     2    18 1
     6     3     4 1
     7     4     5 1
     8     5     6 ar
     9     5    14 ar
    10     6     7 ar
    11     7     8 ar
    12     8     9 1
    13     8    13 ar
    14     9    10 1
    15     9    11 1
    16     9    12 1
    17    13    14 ar
    18    15    16 1
    19    16    17 1
    20    18    19 1
    21    18    28 1
    22    19    20 1
    23    20    21 1
    24    21    22 1
    25    22    23 ar
    26    22    27 ar
    27    23    24 ar
    28    24    25 ar
    29    25    26 ar
    30    26    27 ar
    31    28    29 2
    32    28    30 2
    33    28    31 1
    34    31    32 ar
    35    31    39 ar
    36    32    33 ar
    37    33    34 ar
    38    34    35 1
    39    34    38 ar
    40    35    36 1
    41    35    37 2
    42    38    39 ar
    43     1    40 1
    44     2    41 1
    45     3    42 1
    46     4    43 1
    47     4    44 1
    48     6    45 1
    49     7    46 1
    50    13    47 1
    51    14    48 1
    52    15    49 1
    53    15    50 1
    54    16    51 1
    55    17    52 1
    56    17    53 1
    57    19    54 1
    58    19    55 1
    59    20    56 1
    60    20    57 1
    61    21    58 1
    62    21    59 1
    63    23    60 1
    64    24    61 1
    65    25    62 1
    66    26    63 1
    67    27    64 1
    68    32    65 1
    69    33    66 1
    70    36    67 1
    71    36    68 1
    72    38    69 1
    73    39    70 1
    74    71    36 1
@<TRIPOS>SUBSTRUCTURE
     1 JHG         1 TEMP              0 ****  ****    0 ROOT
