@<TRIPOS>MOLECULE
molecule
   31    32     1     0     0
SMALL
bcc


@<TRIPOS>ATOM
      1 C10          0.0000     0.0000     0.0000 c          1 JHJ       0.781100
      2 N12          1.3480     0.0000     0.0000 ns         1 JHJ      -0.488100
      3 C13          2.0460     0.0000     1.2080 ca         1 JHJ       0.108600
      4 C15          3.9450    -0.6020     2.5290 ca         1 JHJ       0.436200
      5 C17          2.2430     0.6090     3.5120 ca         1 JHJ       0.436200
      6 C01         -6.7820     1.2120    -0.0430 c3         1 JHJ       0.128700
      7 C03         -4.8330     0.4100    -1.1430 ca         1 JHJ       0.128100
      8 C04         -4.0910     0.9790    -0.1190 ca         1 JHJ      -0.172500
      9 C05         -2.7130     0.8770    -0.1240 ca         1 JHJ      -0.105000
     10 C06         -2.0720     0.2040    -1.1550 ca         1 JHJ       0.029600
     11 C07         -2.8160    -0.3660    -2.1800 ca         1 JHJ      -0.105000
     12 C08         -4.1920    -0.2630    -2.1730 ca         1 JHJ      -0.172500
     13 C14          3.2870    -0.6250     1.3180 ca         1 JHJ      -0.276300
     14 C18          1.5220     0.6310     2.3360 ca         1 JHJ      -0.276300
     15 N09         -0.6750     0.1010    -1.1630 ns         1 JHJ      -0.486100
     16 N16          3.4130     0.0010     3.5760 nb         1 JHJ      -0.707000
     17 O11         -0.6080    -0.0940     1.0490 o          1 JHJ      -0.629100
     18 H121         1.8480     0.0140    -0.8670 hn         1 JHJ       0.321500
     19 H151         4.9090    -1.0870     2.6240 h4         1 JHJ       0.025100
     20 H171         1.8430     1.0940     4.3940 h4         1 JHJ       0.025100
     21 H013        -6.5210     0.7240     0.8890 h1         1 JHJ       0.042033
     22 H012        -7.8590     1.2010    -0.1660 h1         1 JHJ       0.042033
     23 H011        -6.4320     2.2370    -0.0240 h1         1 JHJ       0.042033
     24 H041        -4.5910     1.5040     0.6850 ha         1 JHJ       0.143000
     25 H051        -2.1340     1.3220     0.6750 ha         1 JHJ       0.147000
     26 H071        -2.3160    -0.8920    -2.9850 ha         1 JHJ       0.147000
     27 H081        -4.7720    -0.7080    -2.9720 ha         1 JHJ       0.143000
     28 H141         3.7290    -1.1210     0.4620 ha         1 JHJ       0.152000
     29 H181         0.5620     1.1320     2.2900 ha         1 JHJ       0.152000
     30 H091        -0.1760     0.1190    -2.0300 hn         1 JHJ       0.317500
     31 O02         -6.1890     0.5050    -1.1340 os         1 JHJ      -0.328900
@<TRIPOS>BOND
     1    14     5 ar
     2    14     3 ar
     3     5    16 ar
     4    16     4 ar
     5     2     3 1
     6     2     1 1
     7     3    13 ar
     8    15     1 1
     9    15    10 1
    10     9    10 ar
    11     9     8 ar
    12     1    17 2
    13     4    13 ar
    14    10    11 ar
    15     8     7 ar
    16    11    12 ar
    17     7    12 ar
    18     7    31 1
    19     6    31 1
    20     2    18 1
    21     4    19 1
    22     5    20 1
    23     6    21 1
    24     6    22 1
    25     6    23 1
    26     8    24 1
    27     9    25 1
    28    11    26 1
    29    12    27 1
    30    13    28 1
    31    14    29 1
    32    15    30 1
@<TRIPOS>SUBSTRUCTURE
     1 JHJ         1 TEMP              0 ****  ****    0 ROOT
