@<TRIPOS>MOLECULE
JHJ
   31    32     1     0     0
SMALL
bcc


@<TRIPOS>ATOM
      1 C10          0.0000     0.0000     0.0000 c          1 JHJ       0.551100
      2 N12          1.3480     0.0000     0.0000 ns         1 JHJ      -0.048100
      3 C13          2.0460     0.0000     1.2080 ca         1 JHJ      -0.041400
      4 C15          3.9450    -0.6020     2.5290 ca         1 JHJ       0.424200
      5 C17          2.2430     0.6090     3.5120 ca         1 JHJ       0.424200
      6 C01         -6.7820     1.2120    -0.0430 c3         1 JHJ       0.243700
      7 C03         -4.8330     0.4100    -1.1430 ca         1 JHJ       0.141100
      8 C04         -4.0910     0.9790    -0.1190 ca         1 JHJ      -0.158000
      9 C05         -2.7130     0.8770    -0.1240 ca         1 JHJ      -0.072500
     10 C06         -2.0720     0.2040    -1.1550 ca         1 JHJ      -0.122400
     11 C07         -2.8160    -0.3660    -2.1800 ca         1 JHJ      -0.072500
     12 C08         -4.1920    -0.2630    -2.1730 ca         1 JHJ      -0.158000
     13 C14          3.2870    -0.6250     1.3180 ca         1 JHJ      -0.246800
     14 C18          1.5220     0.6310     2.3360 ca         1 JHJ      -0.246800
     15 N09         -0.6750     0.1010    -1.1630 ns         1 JHJ      -0.043100
     16 N16          3.4130     0.0010     3.5760 nb         1 JHJ      -0.601000
     17 O11         -0.6080    -0.0940     1.0490 o          1 JHJ      -0.679100
     18 H121         1.8480     0.0140    -0.8670 hn         1 JHJ       0.162500
     19 H151         4.9090    -1.0870     2.6240 h4         1 JHJ      -0.020900
     20 H171         1.8430     1.0940     4.3940 h4         1 JHJ      -0.020900
     21 H013        -6.5210     0.7240     0.8890 h1         1 JHJ      -0.002300
     22 H012        -7.8590     1.2010    -0.1660 h1         1 JHJ      -0.002300
     23 H011        -6.4320     2.2370    -0.0240 h1         1 JHJ      -0.002300
     24 H041        -4.5910     1.5040     0.6850 ha         1 JHJ       0.119000
     25 H051        -2.1340     1.3220     0.6750 ha         1 JHJ       0.120500
     26 H071        -2.3160    -0.8920    -2.9850 ha         1 JHJ       0.120500
     27 H081        -4.7720    -0.7080    -2.9720 ha         1 JHJ       0.119000
     28 H141         3.7290    -1.1210     0.4620 ha         1 JHJ       0.131500
     29 H181         0.5620     1.1320     2.2900 ha         1 JHJ       0.131500
     30 H091        -0.1760     0.1190    -2.0300 hn         1 JHJ       0.159500
     31 O02         -6.1890     0.5050    -1.1340 os         1 JHJ      -0.307900
@<TRIPOS>BOND
     1     1     2 1   
     2     1    15 1   
     3     1    17 2   
     4     2     3 1   
     5     2    18 1   
     6     3    13 ar  
     7     3    14 ar  
     8     4    13 ar  
     9     4    16 ar  
    10     4    19 1   
    11     5    14 ar  
    12     5    16 ar  
    13     5    20 1   
    14     6    21 1   
    15     6    22 1   
    16     6    23 1   
    17     6    31 1   
    18     7     8 ar  
    19     7    12 ar  
    20     7    31 1   
    21     8     9 ar  
    22     8    24 1   
    23     9    10 ar  
    24     9    25 1   
    25    10    11 ar  
    26    10    15 1   
    27    11    12 ar  
    28    11    26 1   
    29    12    27 1   
    30    13    28 1   
    31    14    29 1   
    32    15    30 1   
@<TRIPOS>SUBSTRUCTURE
     1 JHJ         1 TEMP              0 ****  ****    0 ROOT
