@<TRIPOS>MOLECULE
molecule
   26    26     1     0     0
SMALL
bcc


@<TRIPOS>ATOM
      1 S            0.0000     0.0000     0.0000 s6         1 JHM       1.567300
      2 C1           5.4720     1.2770    -0.5080 c3         1 JHM       0.338900
      3 O1           5.9180    -0.0810    -0.4790 oh         1 JHM      -0.627800
      4 C2           6.1690     2.0670     0.6020 c3         1 JHM      -0.135400
      5 C3           5.7760     1.4790     1.9610 c3         1 JHM       0.127100
      6 O3           6.3650     2.2550     3.0070 oh         1 JHM      -0.614800
      7 C4           4.2500     1.5070     2.0950 c3         1 JHM       0.117100
      8 O4           3.8680     0.8950     3.3280 oh         1 JHM      -0.597800
      9 C5           3.6280     0.7390     0.9270 c3         1 JHM       0.143100
     10 O5           4.0590     1.3180    -0.3060 os         1 JHM      -0.391600
     11 C6           2.1030     0.8130     1.0210 c3         1 JHM       0.195400
     12 O6           1.5220     0.0000     0.0000 os         1 JHM      -0.596500
     13 O7          -0.4010     0.0000     1.3630 o          1 JHM      -0.739867
     14 O8          -0.4510     1.3330    -0.5800 o          1 JHM      -0.739867
     15 O9          -0.4000    -0.9980    -0.9290 o          1 JHM      -0.739867
     16 H1           5.7110     1.7190    -1.4680 h2         1 JHM       0.059700
     17 H2A          5.8600     3.1040     0.5550 hc         1 JHM       0.055200
     18 H3           6.1230     0.4550     2.0240 h1         1 JHM       0.059700
     19 HO3          7.1410     1.8210     3.3210 ho         1 JHM       0.397000
     20 H4           3.9060     2.5340     2.0740 h1         1 JHM       0.051700
     21 HO4          3.6220     1.5620     3.9470 ho         1 JHM       0.406000
     22 H5           3.9470    -0.2960     0.9680 h1         1 JHM       0.074700
     23 H6           1.7830     1.8400     0.8910 h1         1 JHM       0.064700
     24 H6A          1.7840     0.4560     1.9930 h1         1 JHM       0.064700
     25 HO1          6.2200    -0.3310    -1.3360 ho         1 JHM       0.406000
     26 H2           7.2420     1.9970     0.4760 hc         1 JHM       0.055200
@<TRIPOS>BOND
     1    15     1 1
     2    13     1 1
     3     1    14 1
     4     1    12 1
     5    10     2 1
     6     4     2 1
     7     2     3 1
     8     2    16 1
     9     3    25 1
    10     4     5 1
    11     4    26 1
    12     4    17 1
    13     7     5 1
    14     6     5 1
    15     5    18 1
    16     6    19 1
    17     7     9 1
    18     7     8 1
    19     7    20 1
    20     8    21 1
    21    11     9 1
    22    10     9 1
    23     9    22 1
    24    12    11 1
    25    11    23 1
    26    11    24 1
@<TRIPOS>SUBSTRUCTURE
     1 JHM         1 TEMP              0 ****  ****    0 ROOT
