@<TRIPOS>MOLECULE
JHM
   26    26     1     0     0
SMALL
bcc


@<TRIPOS>ATOM
      1 S           0.8400   -0.3140   -0.5010 s6        1 JHM      1.709300
      2 C1          4.9620    1.4150   -0.4860 c3        1 JHM      0.351900
      3 O1          5.0460    0.0450   -0.7830 oh        1 JHM     -0.669800
      4 C2          6.0610    1.7910    0.5100 c3        1 JHM     -0.136400
      5 C3          5.7430    1.2960    1.9130 c3        1 JHM      0.098100
      6 O3          6.5820    1.9210    2.8810 oh        1 JHM     -0.621800
      7 C4          4.2930    1.6410    2.3100 c3        1 JHM      0.126100
      8 O4          3.9750    1.0720    3.5670 oh        1 JHM     -0.586800
      9 C5          3.3630    1.0390    1.2440 c3        1 JHM      0.093100
     10 O5          3.6650    1.6830    0.0010 os        1 JHM     -0.429600
     11 C6          1.8640    1.2810    1.4950 c3        1 JHM      0.230400
     12 O6          1.1220    0.1670    1.1400 os        1 JHM     -0.608500
     13 O7         -0.0370   -1.3780   -0.3200 o         1 JHM     -0.756533
     14 O8          0.3060    0.8390   -1.0670 o         1 JHM     -0.756533
     15 O9          2.1290   -0.6570   -0.9270 o         1 JHM     -0.756533
     16 H1          5.0440    2.0300   -1.4290 h2        1 JHM      0.054700
     17 H2A         6.1580    2.9070    0.5230 hc        1 JHM      0.050200
     18 H3          5.8810    0.1790    1.9660 h1        1 JHM      0.061700
     19 HO3         7.4890    1.7160    2.6310 ho        1 JHM      0.396000
     20 H4          4.1700    2.7570    2.3580 h1        1 JHM      0.044700
     21 HO4         4.6570    1.3800    4.1780 ho        1 JHM      0.401000
     22 H5          3.5490   -0.0690    1.1570 h1        1 JHM      0.092700
     23 H6          1.5260    2.1840    0.9160 h1        1 JHM      0.036200
     24 H6A         1.7100    1.4460    2.5960 h1        1 JHM      0.036200
     25 HO1         4.1520   -0.2680   -1.0320 ho        1 JHM      0.488000
     26 H2          7.0310    1.3520    0.1650 hc        1 JHM      0.050200
@<TRIPOS>BOND
     1    1   12 1   
     2    1   13 1   
     3    1   14 1   
     4    1   15 1   
     5    2    3 1   
     6    2    4 1   
     7    2   10 1   
     8    2   16 1   
     9    3   25 1   
    10    4    5 1   
    11    4   17 1   
    12    4   26 1   
    13    5    6 1   
    14    5    7 1   
    15    5   18 1   
    16    6   19 1   
    17    7    8 1   
    18    7    9 1   
    19    7   20 1   
    20    8   21 1   
    21    9   10 1   
    22    9   11 1   
    23    9   22 1   
    24   11   12 1   
    25   11   23 1   
    26   11   24 1   
@<TRIPOS>SUBSTRUCTURE
     1 JHM         1 TEMP              0 ****  ****    0 ROOT
