@<TRIPOS>MOLECULE
JHP
   29    30     1     0     0
SMALL
bcc


@<TRIPOS>ATOM
      1 C10          0.0000     0.0000     0.0000 c3         1 JHP       0.016700
      2 C13          0.7690    -0.6020     2.2360 c3         1 JHP      -0.023400
      3 C01         -1.9350     5.7640    -3.0240 c3         1 JHP      -0.005400
      4 N02         -2.3290     4.3930    -2.6860 na         1 JHP       0.610400
      5 C03         -3.5190     3.8260    -3.0070 cc         1 JHP      -0.347300
      6 C04         -3.5000     2.5600    -2.5260 cd         1 JHP      -0.161900
      7 C05         -2.2370     2.4100    -1.9030 cd         1 JHP       0.254800
      8 N06         -1.5960     3.5530    -2.0490 nc         1 JHP      -0.636800
      9 C07         -1.7320     1.2000    -1.2250 c          1 JHP       0.524600
     10 O08         -2.4260     0.2040    -1.1610 o          1 JHP      -0.649100
     11 N09         -0.5020     1.2010    -0.6740 ns         1 JHP      -0.180900
     12 C11          1.5390     0.0000     0.0000 c3         1 JHP      -0.039400
     13 C12          1.9790     0.0000     1.4780 c3         1 JHP      -0.023400
     14 C14         -0.4410     0.0010     1.4780 c3         1 JHP      -0.039400
     15 H101        -0.3690    -0.8900    -0.4950 h1         1 JHP       0.057700
     16 H132         0.7690    -0.2830     3.2710 hc         1 JHP       0.015700
     17 H131         0.7690    -1.6830     2.1580 hc         1 JHP       0.015700
     18 H013        -2.6360     6.4600    -2.5800 h1         1 JHP       0.028700
     19 H011        -0.9410     5.9580    -2.6400 h1         1 JHP       0.028700
     20 H012        -1.9370     5.8850    -4.1000 h1         1 JHP       0.028700
     21 H031        -4.3310     4.2970    -3.5480 h4         1 JHP       0.160000
     22 H091         0.0800     2.0120    -0.7490 hn         1 JHP       0.187500
     23 H112         1.9080     0.8890    -0.4960 hc         1 JHP       0.022450
     24 H111         1.9080    -0.8890    -0.4960 hc         1 JHP       0.022450
     25 H121         2.1700     1.0120     1.8150 hc         1 JHP       0.015700
     26 H122         2.8560    -0.6230     1.6110 hc         1 JHP       0.015700
     27 H141        -0.6320     1.0120     1.8140 hc         1 JHP       0.022450
     28 H142        -1.3180    -0.6220     1.6100 hc         1 JHP       0.022450
     29 Cl15        -4.7600     1.3720    -2.6450 cl         1 JHP       0.056600
@<TRIPOS>BOND
     1     1    11 1   
     2     1    12 1   
     3     1    14 1   
     4     1    15 1   
     5     2    13 1   
     6     2    14 1   
     7     2    16 1   
     8     2    17 1   
     9     3     4 1   
    10     3    18 1   
    11     3    19 1   
    12     3    20 1   
    13     4     5 1   
    14     4     8 1   
    15     5     6 2   
    16     5    21 1   
    17     6     7 1   
    18     6    29 1   
    19     7     8 2   
    20     7     9 1   
    21     9    10 2   
    22     9    11 1   
    23    11    22 1   
    24    12    13 1   
    25    12    23 1   
    26    12    24 1   
    27    13    25 1   
    28    13    26 1   
    29    14    27 1   
    30    14    28 1   
@<TRIPOS>SUBSTRUCTURE
     1 JHP         1 TEMP              0 ****  ****    0 ROOT
