@<TRIPOS>MOLECULE
molecule
   29    30     1     0     0
SMALL
bcc


@<TRIPOS>ATOM
      1 C10          0.0000     0.0000     0.0000 c3         1 JHP       0.114700
      2 C13          0.7690    -0.6020     2.2360 c3         1 JHP      -0.085900
      3 C01         -1.9350     5.7640    -3.0240 c3         1 JHP       0.053600
      4 N02         -2.3290     4.3930    -2.6860 na         1 JHP       0.145400
      5 C03         -3.5190     3.8260    -3.0070 cc         1 JHP      -0.177300
      6 C04         -3.5000     2.5600    -2.5260 cd         1 JHP      -0.103900
      7 C05         -2.2370     2.4100    -1.9030 cd         1 JHP       0.268800
      8 N06         -1.5960     3.5530    -2.0490 nc         1 JHP      -0.511800
      9 C07         -1.7320     1.2000    -1.2250 c          1 JHP       0.603600
     10 O08         -2.4260     0.2040    -1.1610 o          1 JHP      -0.592100
     11 N09         -0.5020     1.2010    -0.6740 ns         1 JHP      -0.571900
     12 C11          1.5390     0.0000     0.0000 c3         1 JHP      -0.096400
     13 C12          1.9790     0.0000     1.4780 c3         1 JHP      -0.085900
     14 C14         -0.4410     0.0010     1.4780 c3         1 JHP      -0.096400
     15 H101        -0.3690    -0.8900    -0.4950 h1         1 JHP       0.081700
     16 H132         0.7690    -0.2830     3.2710 hc         1 JHP       0.046200
     17 H131         0.7690    -1.6830     2.1580 hc         1 JHP       0.046200
     18 H013        -2.6360     6.4600    -2.5800 h1         1 JHP       0.063367
     19 H011        -0.9410     5.9580    -2.6400 h1         1 JHP       0.063367
     20 H012        -1.9370     5.8850    -4.1000 h1         1 JHP       0.063367
     21 H031        -4.3310     4.2970    -3.5480 h4         1 JHP       0.186000
     22 H091         0.0800     2.0120    -0.7490 hn         1 JHP       0.324500
     23 H112         1.9080     0.8890    -0.4960 hc         1 JHP       0.052700
     24 H111         1.9080    -0.8890    -0.4960 hc         1 JHP       0.052700
     25 H121         2.1700     1.0120     1.8150 hc         1 JHP       0.046200
     26 H122         2.8560    -0.6230     1.6110 hc         1 JHP       0.046200
     27 H141        -0.6320     1.0120     1.8140 hc         1 JHP       0.052700
     28 H142        -1.3180    -0.6220     1.6100 hc         1 JHP       0.052700
     29 Cl15        -4.7600     1.3720    -2.6450 cl         1 JHP      -0.043400
@<TRIPOS>BOND
     1    29     6 1
     2     5     6 2
     3     5     4 1
     4     6     7 1
     5     4     3 1
     6     4     8 1
     7     7     8 2
     8     7     9 1
     9    11     9 1
    10    11     1 1
    11    12     1 1
    12    12    13 1
    13    14     1 1
    14    14     2 1
    15     9    10 2
    16    13     2 1
    17     1    15 1
    18     2    16 1
    19     2    17 1
    20     3    18 1
    21     3    19 1
    22     3    20 1
    23     5    21 1
    24    11    22 1
    25    12    23 1
    26    12    24 1
    27    13    25 1
    28    13    26 1
    29    14    27 1
    30    14    28 1
@<TRIPOS>SUBSTRUCTURE
     1 JHP         1 TEMP              0 ****  ****    0 ROOT
