@<TRIPOS>MOLECULE
JHS
   36    37     1     0     0
SMALL
bcc


@<TRIPOS>ATOM
      1 C10          0.0000     0.0000     0.0000 c3         1 JHS       0.205900
      2 C13         -1.1360    -3.5170     2.0940 ca         1 JHS      -0.106500
      3 C15         -1.1630    -4.9450     4.0160 ca         1 JHS      -0.101000
      4 C17         -0.0120    -2.8480     4.0990 ca         1 JHS      -0.106500
      5 C01         -4.0950     0.6210     3.8760 c3         1 JHS      -0.067100
      6 C02         -2.5940     0.7010     3.7700 c          1 JHS       0.569100
      7 O03         -1.9900     1.5750     4.3560 o          1 JHS      -0.651100
      8 N04         -1.9220    -0.1980     3.0230 ns         1 JHS      -0.206900
      9 C05         -0.4630    -0.1200     2.9190 c3         1 JHS       0.040000
     10 C06          0.0550    -1.3160     2.1190 c3         1 JHS      -0.014700
     11 C07          1.5850    -1.2650     2.0530 c3         1 JHS      -0.065900
     12 C08          2.0130     0.0000     1.3040 c3         1 JHS       0.205900
     13 O09          1.4290     0.0000     0.0000 os         1 JHS      -0.404600
     14 C11         -0.5080    -1.2650     0.6960 c3         1 JHS      -0.065900
     15 C12         -0.3760    -2.5950     2.7890 ca         1 JHS      -0.091300
     16 C14         -1.5320    -4.6910     2.7080 ca         1 JHS      -0.095000
     17 C16         -0.3980    -4.0260     4.7090 ca         1 JHS      -0.095000
     18 H102        -0.3600     0.0180    -1.0220 h1         1 JHS       0.013450
     19 H101        -0.3600     0.8730     0.5310 h1         1 JHS       0.013450
     20 H131        -1.4230    -3.3190     1.0680 ha         1 JHS       0.114500
     21 H151        -1.4700    -5.8660     4.4960 ha         1 JHS       0.104000
     22 H171         0.5850    -2.1260     4.6430 ha         1 JHS       0.114500
     23 H012        -4.4550     1.4210     4.5120 hc         1 JHS       0.022033
     24 H013        -4.3760    -0.3340     4.3040 hc         1 JHS       0.022033
     25 H011        -4.5320     0.7190     2.8900 hc         1 JHS       0.022033
     26 H041        -2.4240    -0.8960     2.5100 hn         1 JHS       0.183500
     27 H051        -0.0290    -0.1340     3.9120 h1         1 JHS       0.037700
     28 H052        -0.1850     0.7990     2.4170 h1         1 JHS       0.037700
     29 H072         1.9890    -1.2430     3.0580 hc         1 JHS       0.031950
     30 H071         1.9530    -2.1380     1.5270 hc         1 JHS       0.031950
     31 H081         3.0920     0.0180     1.2150 h1         1 JHS       0.013450
     32 H082         1.6760     0.8730     1.8490 h1         1 JHS       0.013450
     33 H111        -0.1770    -2.1370     0.1450 hc         1 JHS       0.031950
     34 H112        -1.5900    -1.2450     0.7370 hc         1 JHS       0.031950
     35 H141        -2.1300    -5.4130     2.1640 ha         1 JHS       0.104000
     36 H161        -0.1110    -4.2240     5.7340 ha         1 JHS       0.104000
@<TRIPOS>BOND
     1     1    13 1   
     2     1    14 1   
     3     1    18 1   
     4     1    19 1   
     5     2    15 ar  
     6     2    16 ar  
     7     2    20 1   
     8     3    16 ar  
     9     3    17 ar  
    10     3    21 1   
    11     4    15 ar  
    12     4    17 ar  
    13     4    22 1   
    14     5     6 1   
    15     5    23 1   
    16     5    24 1   
    17     5    25 1   
    18     6     7 2   
    19     6     8 1   
    20     8     9 1   
    21     8    26 1   
    22     9    10 1   
    23     9    27 1   
    24     9    28 1   
    25    10    11 1   
    26    10    14 1   
    27    10    15 1   
    28    11    12 1   
    29    11    29 1   
    30    11    30 1   
    31    12    13 1   
    32    12    31 1   
    33    12    32 1   
    34    14    33 1   
    35    14    34 1   
    36    16    35 1   
    37    17    36 1   
@<TRIPOS>SUBSTRUCTURE
     1 JHS         1 TEMP              0 ****  ****    0 ROOT
