@<TRIPOS>MOLECULE
JHT
   45    47     1     0     0
SMALL
bcc


@<TRIPOS>ATOM
      1 C01          0.0000     0.0000     0.0000 c3         1 JHT       0.213600
      2 N02          1.4650     0.0000     0.0000 nh         1 JHT      -0.399000
      3 C03          2.1970     0.0000     1.2680 c3         1 JHT       0.213600
      4 C04          2.1630     0.0010    -1.2100 ca         1 JHT       0.078600
      5 C05          1.4700     0.0010    -2.4140 ca         1 JHT      -0.190000
      6 C06          2.1630     0.0020    -3.6080 ca         1 JHT      -0.052000
      7 C07          3.5460     0.0020    -3.6050 ca         1 JHT      -0.159000
      8 C08          4.2390     0.0020    -2.4100 ca         1 JHT      -0.047300
      9 C09          5.7460     0.0020    -2.4130 c3         1 JHT       0.200100
     10 N10          6.2360     1.3880    -2.4130 n7         1 JHT      -0.579200
     11 C11          7.7040     1.4270    -2.4160 c3         1 JHT       0.197100
     12 C12          8.1680     2.8610    -2.4170 ca         1 JHT      -0.068300
     13 C13          8.3810     3.5130    -1.2040 ca         1 JHT      -0.106000
     14 C14          8.8010     4.8080    -1.1720 ca         1 JHT      -0.063000
     15 C15          9.0200     5.4960    -2.3760 ca         1 JHT      -0.205300
     16 C16          9.4550     6.8380    -2.3820 ca         1 JHT      -0.007000
     17 C17          9.6490     7.4480    -3.5840 ca         1 JHT      -0.281300
     18 C18          9.4170     6.7400    -4.7720 ca         1 JHT       0.515200
     19 N19          9.6190     7.3730    -5.9890 nv         1 JHT      -0.528500
     20 N20          9.0120     5.4860    -4.7600 nb         1 JHT      -0.670000
     21 C21          8.8040     4.8360    -3.6090 ca         1 JHT       0.436600
     22 C22          8.3770     3.4970    -3.6020 ca         1 JHT      -0.166300
     23 C23          3.5510     0.0070    -1.2110 ca         1 JHT      -0.167000
     24 H011        -0.3610    -0.0000     1.0210 h1         1 JHT       0.003867
     25 H012        -0.3610    -0.8840    -0.5110 h1         1 JHT       0.003867
     26 H013        -0.3610     0.8850    -0.5100 h1         1 JHT       0.003867
     27 H031         2.8210    -0.8840     1.3250 h1         1 JHT       0.003867
     28 H032         2.8180     0.8850     1.3270 h1         1 JHT       0.003867
     29 H033         1.4930    -0.0020     2.0910 h1         1 JHT       0.003867
     30 H05          0.3860     0.0010    -2.4160 ha         1 JHT       0.113000
     31 H23          4.0950     0.0070    -0.2740 ha         1 JHT       0.120000
     32 H06          1.6240     0.0020    -4.5470 ha         1 JHT       0.097000
     33 H07          4.0880     0.0030    -4.5440 ha         1 JHT       0.103000
     34 H091         6.1090    -0.5090    -1.5290 h1         1 JHT       0.007200
     35 H092         6.1060    -0.5080    -3.2980 h1         1 JHT       0.007200
     36 H10          5.8870     1.8650    -3.2210 hn         1 JHT       0.261800
     37 H111         8.0810     0.9260    -1.5330 h1         1 JHT       0.008700
     38 H112         8.0770     0.9270    -3.3020 h1         1 JHT       0.008700
     39 H13          8.2110     2.9820    -0.2750 ha         1 JHT       0.108000
     40 H22          8.3020     2.9470    -4.5320 ha         1 JHT       0.117000
     41 H14          8.9630     5.3040    -0.2230 ha         1 JHT       0.102000
     42 H16          9.6290     7.3700    -1.4550 ha         1 JHT       0.106000
     43 H17         10.0360     8.4590    -3.6220 ha         1 JHT       0.113000
     44 H191         9.9240     8.3260    -6.0120 hn         1 JHT       0.269300
     45 H192         9.4570     6.8790    -6.8430 hn         1 JHT       0.269300
@<TRIPOS>BOND
     1     1     2 1   
     2     1    24 1   
     3     1    25 1   
     4     1    26 1   
     5     2     3 1   
     6     2     4 1   
     7     3    27 1   
     8     3    28 1   
     9     3    29 1   
    10     4     5 ar  
    11     4    23 ar  
    12     5     6 ar  
    13     5    30 1   
    14     6     7 ar  
    15     6    32 1   
    16     7     8 ar  
    17     7    33 1   
    18     8     9 1   
    19     8    23 ar  
    20     9    10 1   
    21     9    34 1   
    22     9    35 1   
    23    10    11 1   
    24    10    36 1   
    25    11    12 1   
    26    11    37 1   
    27    11    38 1   
    28    12    13 ar  
    29    12    22 ar  
    30    13    14 ar  
    31    13    39 1   
    32    14    15 ar  
    33    14    41 1   
    34    15    16 ar  
    35    15    21 ar  
    36    16    17 ar  
    37    16    42 1   
    38    17    18 ar  
    39    17    43 1   
    40    18    19 1   
    41    18    20 ar  
    42    19    44 1   
    43    19    45 1   
    44    20    21 ar  
    45    21    22 ar  
    46    22    40 1   
    47    23    31 1   
@<TRIPOS>SUBSTRUCTURE
     1 JHT         1 TEMP              0 ****  ****    0 ROOT
