@<TRIPOS>MOLECULE
JHV
   25    26     1     0     0
SMALL
bcc


@<TRIPOS>ATOM
      1 C10          0.0000     0.0000     0.0000 ca         1 JHV       0.048600
      2 C15          1.3950     0.0000     0.0000 ca         1 JHV      -0.276300
      3 C01          1.1400     2.5090    -3.1400 ca         1 JHV      -0.104000
      4 C02          0.7290     1.7170    -2.0840 ca         1 JHV      -0.137000
      5 C03         -0.2960     0.7990    -2.2630 ca         1 JHV      -0.028400
      6 C04         -0.9100     0.6810    -3.5110 ca         1 JHV       0.007600
      7 C05         -0.4930     1.4800    -4.5640 ca         1 JHV      -0.134000
      8 C06          0.5310     2.3920    -4.3770 ca         1 JHV      -0.028600
      9 Cl07         1.0470     3.3960    -5.6950 cl         1 JHV      -0.035400
     10 N08         -1.9450    -0.2430    -3.6970 nv         1 JHV      -0.474200
     11 N09         -0.7140    -0.0050    -1.1950 nu         1 JHV      -0.221000
     12 C11         -0.6610    -0.0010     1.2280 ca         1 JHV      -0.276300
     13 C12          0.0840    -0.0020     2.3890 ca         1 JHV       0.434200
     14 N13          1.4030    -0.0010     2.3470 nb         1 JHV      -0.610000
     15 C14          2.0650     0.0000     1.2060 ca         1 JHV       0.434200
     16 H151         1.9450     0.0010    -0.9340 ha         1 JHV       0.126500
     17 H021         1.2090     1.8120    -1.1180 ha         1 JHV       0.135000
     18 H051        -0.9680     1.3900    -5.5340 ha         1 JHV       0.119000
     19 H082        -2.6390    -0.0810    -4.4000 hn         1 JHV       0.268300
     20 H081        -1.9670    -1.0850    -3.1570 hn         1 JHV       0.268300
     21 H091        -1.5550    -0.5410    -1.2730 hn         1 JHV       0.284800
     22 H111        -1.7430    -0.0010     1.2690 ha         1 JHV       0.126500
     23 H121        -0.4210    -0.0030     3.3480 h4         1 JHV      -0.021400
     24 H141         3.1480     0.0000     1.2160 h4         1 JHV      -0.021400
     25 H011         1.9410     3.2250    -2.9990 ha         1 JHV       0.115000
@<TRIPOS>BOND
     1     1     2 ar  
     2     1    11 1   
     3     1    12 ar  
     4     2    15 ar  
     5     2    16 1   
     6     3     4 ar  
     7     3     8 ar  
     8     3    25 1   
     9     4     5 ar  
    10     4    17 1   
    11     5     6 ar  
    12     5    11 1   
    13     6     7 ar  
    14     6    10 1   
    15     7     8 ar  
    16     7    18 1   
    17     8     9 1   
    18    10    19 1   
    19    10    20 1   
    20    11    21 1   
    21    12    13 ar  
    22    12    22 1   
    23    13    14 ar  
    24    13    23 1   
    25    14    15 ar  
    26    15    24 1   
@<TRIPOS>SUBSTRUCTURE
     1 JHV         1 TEMP              0 ****  ****    0 ROOT
