@<TRIPOS>MOLECULE
molecule
   23    24     1     0     0
SMALL
bcc


@<TRIPOS>ATOM
      1 O3           0.0000     0.0000     0.0000 o          1 JHY      -0.595500
      2 C9           1.2160     0.0000     0.0000 c          1 JHY       0.816600
      3 N            1.9940     0.0000     1.1010 n          1 JHY      -0.360000
      4 C2           1.5300     0.0000     2.4910 c3         1 JHY       0.129000
      5 C1           1.3670    -1.4420     2.9740 c3         1 JHY      -0.208400
      6 C            0.8900    -1.4420     4.4040 c          1 JHY       0.896600
      7 O1           0.6990    -0.3960     4.9760 o          1 JHY      -0.845300
      8 O            0.6770    -2.6050     5.0400 o          1 JHY      -0.845300
      9 O2           1.9910    -0.0070    -1.0950 os         1 JHY      -0.279200
     10 C8           3.2930    -0.0040    -0.7200 ca         1 JHY       0.054100
     11 C3           3.3230    -0.0000     0.6750 ca         1 JHY       0.025600
     12 C7           4.4820    -0.0090    -1.4320 ca         1 JHY      -0.093000
     13 C6           5.6890    -0.0060    -0.7600 ca         1 JHY       0.012400
     14 Cl1          7.1780    -0.0100    -1.6540 cl         1 JHY      -0.101400
     15 C5           5.7170     0.0030     0.6260 ca         1 JHY       0.019400
     16 Cl           7.2390     0.0080     1.4620 cl         1 JHY      -0.092400
     17 C4           4.5350     0.0000     1.3440 ca         1 JHY      -0.106000
     18 H21C         2.2540     0.5110     3.1140 h1         1 JHY       0.078200
     19 H22C         0.5760     0.5110     2.5530 h1         1 JHY       0.078200
     20 H11C         0.6430    -1.9520     2.3520 hc         1 JHY       0.043700
     21 H12C         2.3210    -1.9530     2.9120 hc         1 JHY       0.043700
     22 H7           4.4930    -0.0190    -2.5150 ha         1 JHY       0.155000
     23 H4           4.8600     0.0920     2.3730 ha         1 JHY       0.174000
@<TRIPOS>BOND
     1     1     2 2
     2     2     3 1
     3     2     9 1
     4     3     4 1
     5     3    11 1
     6     4     5 1
     7     5     6 1
     8     6     7 1
     9     6     8 1
    10     9    10 1
    11    10    11 ar
    12    10    12 ar
    13    11    17 ar
    14    12    13 ar
    15    13    14 1
    16    13    15 ar
    17    15    16 1
    18    15    17 ar
    19     4    18 1
    20     4    19 1
    21     5    20 1
    22     5    21 1
    23    12    22 1
    24    17    23 1
@<TRIPOS>SUBSTRUCTURE
     1 JHY         1 TEMP              0 ****  ****    0 ROOT
