@<TRIPOS>MOLECULE
JHY
   23    24     1     0     0
SMALL
bcc


@<TRIPOS>ATOM
      1 O3           0.0000     0.0000     0.0000 o          1 JHY      -0.656500
      2 C9           1.2160     0.0000     0.0000 c          1 JHY       0.745600
      3 N            1.9940     0.0000     1.1010 n          1 JHY       0.025000
      4 C2           1.5300     0.0000     2.4910 c3         1 JHY       0.061000
      5 C1           1.3670    -1.4420     2.9740 c3         1 JHY      -0.159400
      6 C            0.8900    -1.4420     4.4040 c          1 JHY       0.986600
      7 O1           0.6990    -0.3960     4.9760 o          1 JHY      -0.895300
      8 O            0.6770    -2.6050     5.0400 o          1 JHY      -0.895300
      9 O2           1.9910    -0.0070    -1.0950 os         1 JHY      -0.259200
     10 C8           3.2930    -0.0040    -0.7200 ca         1 JHY       0.057100
     11 C3           3.3230    -0.0000     0.6750 ca         1 JHY      -0.111400
     12 C7           4.4820    -0.0090    -1.4320 ca         1 JHY      -0.071000
     13 C6           5.6890    -0.0060    -0.7600 ca         1 JHY      -0.049600
     14 Cl1          7.1780    -0.0100    -1.6540 cl         1 JHY      -0.026400
     15 C5           5.7170     0.0030     0.6260 ca         1 JHY      -0.059600
     16 Cl           7.2390     0.0080     1.4620 cl         1 JHY      -0.013400
     17 C4           4.5350     0.0000     1.3440 ca         1 JHY      -0.069000
     18 H21C         2.2540     0.5110     3.1140 h1         1 JHY       0.048200
     19 H22C         0.5760     0.5110     2.5530 h1         1 JHY       0.048200
     20 H11C         0.6430    -1.9520     2.3520 hc         1 JHY       0.017700
     21 H12C         2.3210    -1.9530     2.9120 hc         1 JHY       0.017700
     22 H7           4.4930    -0.0190    -2.5150 ha         1 JHY       0.119000
     23 H4           4.8600     0.0920     2.3730 ha         1 JHY       0.140000
@<TRIPOS>BOND
     1     1     2 2   
     2     2     3 1   
     3     2     9 1   
     4     3     4 1   
     5     3    11 1   
     6     4     5 1   
     7     4    18 1   
     8     4    19 1   
     9     5     6 1   
    10     5    20 1   
    11     5    21 1   
    12     6     7 1   
    13     6     8 1   
    14     9    10 1   
    15    10    11 ar  
    16    10    12 ar  
    17    11    17 ar  
    18    12    13 ar  
    19    12    22 1   
    20    13    14 1   
    21    13    15 ar  
    22    15    16 1   
    23    15    17 ar  
    24    17    23 1   
@<TRIPOS>SUBSTRUCTURE
     1 JHY         1 TEMP              0 ****  ****    0 ROOT
