@<TRIPOS>MOLECULE
JHZ
   61    63     1     0     0
SMALL
bcc


@<TRIPOS>ATOM
      1 P            0.0000     0.0000     0.0000 p5         1 JHZ       0.963800
      2 C1          -0.8610    -5.2010    -1.6050 c3         1 JHZ       0.475900
      3 O1          -0.8030    -3.7740    -1.6520 os         1 JHZ      -0.456200
      4 C2          -0.2050    -5.7780    -2.8630 c3         1 JHZ      -0.085400
      5 P2          -0.7190    -2.8570    -0.3310 p5         1 JHZ       0.931800
      6 C3          -0.2410    -7.3100    -2.7880 c3         1 JHZ      -0.212800
      7 N3           0.1970    -7.8800    -4.0690 nz         1 JHZ       0.069400
      8 C4          -1.6690    -7.7290    -2.5030 c          1 JHZ       0.606100
      9 O4          -2.2060    -8.5950    -3.1510 o          1 JHZ      -0.576100
     10 C5          -2.3980    -7.0280    -1.3760 c3         1 JHZ       0.121100
     11 O5          -2.2260    -5.6160    -1.5370 os         1 JHZ      -0.368600
     12 C6          -1.8160    -7.4690    -0.0320 c3         1 JHZ      -0.045100
     13 C1X         -2.8980     4.8400    -1.6460 c3         1 JHZ       0.228500
     14 N11         -4.1130     5.2180    -0.9210 n          1 JHZ       0.047000
     15 O1P          1.6100     0.0000     0.0000 o          1 JHZ      -0.666500
     16 C2X         -1.8000     5.8960    -1.4150 c3         1 JHZ      -0.110400
     17 C21         -4.1020     5.2600     0.4230 c          1 JHZ       0.586500
     18 O21         -3.0820     4.9820     1.0220 o          1 JHZ      -0.658500
     19 O2P         -0.4930     0.0000     1.3950 o          1 JHZ      -0.666500
     20 C3X         -0.6300     5.0980    -0.7900 c3         1 JHZ       0.155100
     21 O3X          0.6230     5.5230    -1.3310 oh         1 JHZ      -0.579800
     22 N31         -5.2050     5.6040     1.1140 ns         1 JHZ      -0.131500
     23 C3M          0.6770    -7.7940    -1.6640 c3         1 JHZ      -0.010100
     24 O3P         -2.0750    -3.0200     0.5220 o          1 JHZ      -0.648500
     25 C4X         -0.9570     3.6480    -1.2280 c3         1 JHZ       0.160100
     26 O4X         -2.3970     3.5880    -1.1470 os         1 JHZ      -0.354600
     27 C41         -6.3450     5.9150     0.4640 c          1 JHZ       0.630700
     28 O41         -7.3430     6.2270     1.0880 o          1 JHZ      -0.690500
     29 O4P          0.4360    -3.2810     0.4920 o          1 JHZ      -0.648500
     30 C5X         -0.3180     2.6390    -0.2710 c3         1 JHZ       0.310400
     31 O5X         -0.5370     1.3140    -0.7600 os         1 JHZ      -0.508200
     32 C51         -6.3700     5.8750    -0.9510 cc         1 JHZ      -0.313400
     33 C5A         -7.6320     6.2170    -1.7020 c3         1 JHZ       0.110100
     34 C61         -5.2480     5.5320    -1.6190 cd         1 JHZ      -0.075400
     35 OPP         -0.5360    -1.3150    -0.7590 os         1 JHZ      -0.489800
     36 H1          -0.3330    -5.5590    -0.7300 h2         1 JHZ       0.016700
     37 H2          -0.7500    -5.4460    -3.7390 hc         1 JHZ       0.044700
     38 H2A          0.8230    -5.4420    -2.9200 hc         1 JHZ       0.044700
     39 HN3         -0.4440    -7.6130    -4.7900 hn         1 JHZ       0.219133
     40 HN3A         1.1110    -7.5370    -4.2920 hn         1 JHZ       0.219133
     41 H5          -3.4530    -7.2720    -1.4190 h1         1 JHZ       0.064700
     42 H6          -0.9940    -6.8170     0.2370 hc         1 JHZ       0.028700
     43 H6A         -2.5850    -7.4140     0.7300 hc         1 JHZ       0.028700
     44 H6B         -1.4590    -8.4890    -0.1110 hc         1 JHZ       0.028700
     45 H1X         -3.1070     4.7550    -2.7060 h2         1 JHZ       0.019700
     46 H2X         -2.1480     6.6580    -0.7280 hc         1 JHZ       0.025200
     47 H2XA        -1.4960     6.3370    -2.3570 hc         1 JHZ       0.025200
     48 H3X         -0.6410     5.1840     0.2900 h1         1 JHZ       0.042700
     49 HO3X         1.0280     6.1370    -0.7410 ho         1 JHZ       0.381000
     50 HN31        -5.1790     5.6300     2.1140 hn         1 JHZ       0.203500
     51 H3M          1.6840    -7.9090    -2.0450 hc         1 JHZ       0.044700
     52 H3MA         0.6750    -7.0700    -0.8590 hc         1 JHZ       0.044700
     53 H3MB         0.3200    -8.7480    -1.2930 hc         1 JHZ       0.044700
     54 H4X         -0.6280     3.4770    -2.2450 h1         1 JHZ       0.023700
     55 H5X          0.7460     2.8280    -0.2040 h1         1 JHZ      -0.003800
     56 H5XA        -0.7650     2.7400     0.7110 h1         1 JHZ      -0.003800
     57 H5A         -7.8720     7.2620    -1.5470 hc         1 JHZ       0.002367
     58 H5AA        -8.4460     5.6010    -1.3390 hc         1 JHZ       0.002367
     59 H5AB        -7.4840     6.0340    -2.7590 hc         1 JHZ       0.002367
     60 H61         -5.2490     5.4960    -2.7020 h4         1 JHZ       0.128000
     61 H33          0.2250    -8.8780    -3.9980 hn         1 JHZ       0.219133
@<TRIPOS>BOND
     1     1    15 1   
     2     1    19 1   
     3     1    31 1   
     4     1    35 1   
     5     2     3 1   
     6     2     4 1   
     7     2    11 1   
     8     2    36 1   
     9     3     5 1   
    10     4     6 1   
    11     4    37 1   
    12     4    38 1   
    13     5    24 1   
    14     5    29 1   
    15     5    35 1   
    16     6     7 1   
    17     6     8 1   
    18     6    23 1   
    19     7    39 1   
    20     7    40 1   
    21     7    61 1   
    22     8     9 2   
    23     8    10 1   
    24    10    11 1   
    25    10    12 1   
    26    10    41 1   
    27    12    42 1   
    28    12    43 1   
    29    12    44 1   
    30    13    14 1   
    31    13    16 1   
    32    13    26 1   
    33    13    45 1   
    34    14    17 1   
    35    14    34 1   
    36    16    20 1   
    37    16    46 1   
    38    16    47 1   
    39    17    18 2   
    40    17    22 1   
    41    20    21 1   
    42    20    25 1   
    43    20    48 1   
    44    21    49 1   
    45    22    27 1   
    46    22    50 1   
    47    23    51 1   
    48    23    52 1   
    49    23    53 1   
    50    25    26 1   
    51    25    30 1   
    52    25    54 1   
    53    27    28 2   
    54    27    32 1   
    55    30    31 1   
    56    30    55 1   
    57    30    56 1   
    58    32    33 1   
    59    32    34 2   
    60    33    57 1   
    61    33    58 1   
    62    33    59 1   
    63    34    60 1   
@<TRIPOS>SUBSTRUCTURE
     1 JHZ         1 TEMP              0 ****  ****    0 ROOT
