@<TRIPOS>MOLECULE
molecule
   40    41     1     0     0
SMALL
bcc


@<TRIPOS>ATOM
      1 N1           0.0000     0.0000     0.0000 nb         1 JI1      -0.757000
      2 C2           1.3240     0.0000     0.0000 ca         1 JI1       0.698200
      3 N2           2.0120     0.0000    -1.2080 nv         1 JI1      -1.035500
      4 C3           2.0320     0.0000     1.1980 ca         1 JI1      -0.310300
      5 C4           1.3340     0.0000     2.3910 ca         1 JI1      -0.062000
      6 C5          -0.0550    -0.0000     2.3480 ca         1 JI1      -0.294300
      7 C6          -0.6930    -0.0000     1.1230 ca         1 JI1       0.461600
      8 N1'         -3.4810     1.5090    -2.0110 n7         1 JI1      -0.792200
      9 C2'         -4.6620     1.0980    -1.2100 c3         1 JI1       0.108800
     10 C3'         -4.2180     1.2740     0.2580 c3         1 JI1       0.124500
     11 C4'         -2.6780     1.1820     0.2240 c3         1 JI1      -0.092700
     12 C5'         -2.3230     0.9580    -1.2610 c3         1 JI1       0.151800
     13 C7          -2.1990    -0.0000     1.0700 c3         1 JI1      -0.104700
     14 C10         -6.6670    -0.5910     2.4300 c3         1 JI1      -0.083400
     15 C11         -8.0690    -0.2290     2.9250 c3         1 JI1       0.141400
     16 O12         -8.5800    -1.2930     3.7310 oh         1 JI1      -0.609800
     17 HN21         2.8750     0.5020    -1.2920 hn         1 JI1       0.437300
     18 HN22         1.6540    -0.5130    -1.9880 hn         1 JI1       0.437300
     19 H3           3.1150     0.0000     1.1950 ha         1 JI1       0.135000
     20 H4           1.8580     0.0000     3.3390 ha         1 JI1       0.134000
     21 H5          -0.6310    -0.0000     3.2650 ha         1 JI1       0.139000
     22 HN1'        -3.4220     2.5080    -2.0290 hn         1 JI1       0.342800
     23 H2'1        -5.5060     1.7420    -1.4270 h1         1 JI1       0.054700
     24 H2'2        -4.9090     0.0620    -1.4070 h1         1 JI1       0.054700
     25 H3'         -4.5270     2.2440     0.6290 h1         1 JI1       0.062700
     26 H4'         -2.2410     2.1070     0.5780 hc         1 JI1       0.057700
     27 H5'1        -2.2110    -0.1000    -1.4660 h1         1 JI1       0.070200
     28 H5'2        -1.4180     1.4960    -1.5170 h1         1 JI1       0.070200
     29 H71         -2.5950     0.0900     2.0740 hc         1 JI1       0.066700
     30 H72         -2.5450    -0.9260     0.6260 hc         1 JI1       0.066700
     31 HN8         -4.8180    -0.6470     0.5610 hn         1 JI1       0.359800
     32 H91         -6.0730     1.4560     2.1560 h1         1 JI1       0.031700
     33 H92         -6.7750     0.7030     0.7170 h1         1 JI1       0.031700
     34 H101        -6.7150    -1.4990     1.8420 hc         1 JI1       0.061200
     35 H102        -6.0130    -0.7450     3.2800 hc         1 JI1       0.061200
     36 H111        -8.0210     0.6790     3.5140 h1         1 JI1       0.018700
     37 H112        -8.7230    -0.0740     2.0750 h1         1 JI1       0.018700
     38 HO12        -9.4350    -1.0610     4.0530 ho         1 JI1       0.402000
     39 N8          -4.7760     0.2010     1.0920 n7         1 JI1      -0.812200
     40 C9          -6.1210     0.5480     1.5670 c3         1 JI1       0.154800
@<TRIPOS>BOND
     1     5     4 ar
     2     5     6 ar
     3     4     2 ar
     4     6     7 ar
     5     2     3 1
     6     2     1 ar
     7    12    11 1
     8    12     8 1
     9    11    10 1
    10    11    13 1
    11     7     1 ar
    12     7    13 1
    13    10    39 1
    14    10     9 1
    15     8     9 1
    16    39    40 1
    17    40    14 1
    18    16    15 1
    19    14    15 1
    20     3    17 1
    21     3    18 1
    22     4    19 1
    23     5    20 1
    24     6    21 1
    25     8    22 1
    26     9    23 1
    27     9    24 1
    28    10    25 1
    29    11    26 1
    30    12    27 1
    31    12    28 1
    32    13    29 1
    33    13    30 1
    34    39    31 1
    35    40    32 1
    36    40    33 1
    37    14    34 1
    38    14    35 1
    39    15    36 1
    40    15    37 1
    41    16    38 1
@<TRIPOS>SUBSTRUCTURE
     1 JI1         1 TEMP              0 ****  ****    0 ROOT
