@<TRIPOS>MOLECULE
JI2
   38    36     1     0     0
SMALL
bcc


@<TRIPOS>ATOM
      1 C6          0.4930    1.0890    1.2260 c2        1 JI2      0.040000
      2 N6          0.5320    2.2010    0.3780 n3        1 JI2     -0.325000
      3 C5          1.8500    0.5540    1.6820 c3        1 JI2     -0.254000
      4 C4          2.2340    0.7650    3.0620 c1        1 JI2     -0.039000
      5 C3          0.4260   -0.8120    3.2730 c1        1 JI2      0.091000
      6 C2         -0.6780   -0.3860    2.6330 c2        1 JI2     -0.227000
      7 N1         -0.6690    0.6160    1.6410 n2        1 JI2     -0.196000
      8 N1'        -5.9340    1.3910    2.0490 n3        1 JI2     -0.237000
      9 C2'        -6.9390    1.6880    2.8120 c1        1 JI2     -0.179000
     10 C3'        -3.9660   -0.4620    4.6410 c3        1 JI2     -0.061000
     11 C4'        -3.1110   -0.0500    3.4630 cx        1 JI2     -0.196000
     12 C5'        -3.2170   -0.8050    2.1680 cx        1 JI2     -0.192000
     13 C7         -1.9890   -0.9630    3.0240 cx        1 JI2     -0.098000
     14 C10        -0.6560    0.2500    6.9420 c1        1 JI2     -0.181000
     15 N11        -0.9650   -0.0400    8.1740 n3        1 JI2     -0.229000
     16 HN61        1.2840    2.1940   -0.2730 hn        1 JI2      0.203500
     17 HN62       -0.3360    2.5060   -0.0040 hn        1 JI2      0.203500
     18 H5          2.6960    0.9860    1.0660 hc        1 JI2      0.168500
     19 H4          1.8890   -0.5650    1.4840 hc        1 JI2      0.168500
     20 H3          1.5300    1.2320    3.7670 ha        1 JI2      0.076000
     21 HN1'       -5.9400    1.7010    1.1020 hn        1 JI2      0.187000
     22 H2'1       -4.3160   -1.5240    4.4880 h1        1 JI2      0.084500
     23 H2'2       -5.1150    0.8690    2.3040 hn        1 JI2      0.187000
     24 H3'        -6.8830    1.3210    3.8610 ha        1 JI2      0.039000
     25 H4'        -4.8830    0.1980    4.6520 h1        1 JI2      0.084500
     26 H5'1       -3.1520   -0.2520    1.2150 hc        1 JI2      0.116500
     27 H5'2       -2.9280    1.0420    3.4190 hc        1 JI2      0.134000
     28 H71        -1.8680   -1.9240    3.5690 hc        1 JI2      0.126000
     29 H72        -3.9110   -1.6640    2.1020 hc        1 JI2      0.116500
     30 HN8        -2.5410   -0.9850    5.9770 hn        1 JI2      0.154000
     31 H91        -3.0300    0.5460    6.1320 hn        1 JI2      0.154000
     32 H92         0.7160    1.6110    6.1040 hc        1 JI2      0.094333
     33 H101        1.5220    0.4640    7.2600 hc        1 JI2      0.094333
     34 H102        0.9530   -0.1230    5.6320 hc        1 JI2      0.094333
     35 H111       -1.9170   -0.2370    8.3900 hn        1 JI2      0.192500
     36 H112       -0.3290   -0.0880    8.9460 hn        1 JI2      0.192500
     37 N8         -3.3470   -0.3870    5.9380 n3        1 JI2     -0.335000
     38 C9          0.7140    0.5600    6.4920 c3        1 JI2     -0.252000
@<TRIPOS>BOND
     1    1    2 1
     2    1    3 1
     3    1    7 1
     4    2   16 1
     5    2   17 1
     6    3    4 1
     7    3   18 1
     8    3   19 1
     9    4   20 1
    10    5    6 1
    11    6    7 1
    12    6   13 1
    13    8    9 1
    14    8   21 1
    15    8   23 1
    16    9   24 1
    17   10   11 1
    18   10   22 1
    19   10   25 1
    20   10   37 1
    21   11   12 1
    22   11   13 1
    23   11   27 1
    24   12   13 1
    25   12   26 1
    26   12   29 1
    27   13   28 1
    28   14   15 1
    29   14   38 1
    30   15   35 1
    31   15   36 1
    32   30   37 1
    33   31   37 1
    34   32   38 1
    35   33   38 1
    36   34   38 1
@<TRIPOS>SUBSTRUCTURE
     1 JI2         1 TEMP              0 ****  ****    0 ROOT
