@<TRIPOS>MOLECULE
JI3
   54    56     1     0     0
SMALL
bcc


@<TRIPOS>ATOM
      1 C21          0.0000     0.0000     0.0000 ca         1 JI3      -0.075500
      2 C22          1.3950     0.0000     0.0000 ca         1 JI3      -0.100500
      3 C23          2.0920     0.0000     1.2080 ca         1 JI3      -0.037600
      4 Cl           3.8130    -0.0010     1.2080 cl         1 JI3      -0.022400
      5 C24          1.3940     0.0000     2.4160 ca         1 JI3      -0.100500
      6 C25         -0.0010     0.0000     2.4160 ca         1 JI3      -0.075500
      7 C26         -0.6880    -0.0010     1.2070 ca         1 JI3      -0.095300
      8 C6          -5.8970     6.6770    -3.9440 ca         1 JI3       0.513200
      9 N6          -6.6150     7.6650    -4.6630 nv         1 JI3      -0.565500
     10 C5          -4.5700     6.4780    -4.2900 ca         1 JI3      -0.301300
     11 C4          -3.8540     5.5110    -3.5940 ca         1 JI3      -0.006300
     12 C3          -4.4770     4.7810    -2.5890 ca         1 JI3      -0.278300
     13 C2          -5.8040     5.0610    -2.3260 ca         1 JI3       0.427600
     14 N1          -6.5360     5.9870    -2.9720 nb         1 JI3      -0.643000
     15 N1'         -8.6350     5.4270     0.7180 n7         1 JI3      -0.574200
     16 C2'         -8.2550     4.1640     1.3640 c3         1 JI3       0.143800
     17 C3'         -6.7310     4.1070     1.3140 c3         1 JI3       0.101500
     18 C4'         -6.3750     4.9880     0.1150 c3         1 JI3      -0.038700
     19 C5'         -7.4060     6.1010     0.2830 c3         1 JI3       0.133800
     20 C7          -6.5090     4.2930    -1.2440 c3         1 JI3      -0.084700
     21 N8          -6.2070     2.7530     1.2750 n7         1 JI3      -0.555200
     22 C9          -4.7510     2.7550     1.2190 c3         1 JI3       0.126800
     23 C10         -4.1730     1.3500     1.2420 c3         1 JI3       0.142800
     24 N11         -2.7360     1.3580     1.2070 n7         1 JI3      -0.571200
     25 C12         -2.1890     0.0010     1.2070 c3         1 JI3       0.201100
     26 H21         -0.5440    -0.0000    -0.9370 ha         1 JI3       0.110000
     27 H22          1.9370     0.0010    -0.9380 ha         1 JI3       0.114500
     28 H24          1.9360     0.0000     3.3540 ha         1 JI3       0.114500
     29 H25         -0.5460    -0.0000     3.3520 ha         1 JI3       0.110000
     30 HN61        -6.1210     8.3750    -5.1660 hn         1 JI3       0.271300
     31 HN62        -7.6150     7.6700    -4.6420 hn         1 JI3       0.271300
     32 H5          -4.1050     7.0590    -5.0770 ha         1 JI3       0.124000
     33 H3          -3.9420     4.0220    -2.0320 ha         1 JI3       0.123000
     34 HN1'        -9.1180     6.0060     1.3770 hn         1 JI3       0.246800
     35 H2'1        -8.5940     4.1550     2.3930 h1         1 JI3       0.018200
     36 H2'2        -8.6760     3.3270     0.8200 h1         1 JI3       0.018200
     37 H3'         -6.3500     4.5890     2.2060 h1         1 JI3      -0.001300
     38 H4'         -5.3760     5.3900     0.2360 hc         1 JI3       0.030700
     39 H5'1        -7.0770     6.8040     1.0390 h1         1 JI3       0.022200
     40 H5'2        -7.5700     6.6050    -0.6620 h1         1 JI3       0.022200
     41 H71         -7.5590     4.2090    -1.4960 hc         1 JI3       0.043700
     42 H72         -6.0800     3.3000    -1.1770 hc         1 JI3       0.043700
     43 H81         -2.2710     4.1920    -4.0750 hc         1 JI3       0.011033
     44 H82         -2.1630     5.7860    -4.8340 hc         1 JI3       0.011033
     45 H83         -1.7960     5.5990    -3.1140 hc         1 JI3       0.011033
     46 HN8         -6.5090     2.2550     2.0880 hn         1 JI3       0.252800
     47 H91         -4.4350     3.2490     0.3080 h1         1 JI3       0.014700
     48 H92         -4.3670     3.3070     2.0690 h1         1 JI3       0.014700
     49 H101        -4.5000     0.8510     2.1460 h1         1 JI3       0.008200
     50 H102        -4.5430     0.8030     0.3840 h1         1 JI3       0.008200
     51 HN11        -2.4250     1.8420     0.3880 hn         1 JI3       0.251800
     52 H121        -2.5410    -0.5210     2.0890 h1         1 JI3       0.009700
     53 H122        -2.5410    -0.5210     0.3250 h1         1 JI3       0.009700
     54 C8          -2.4230     5.2550    -3.9270 c3         1 JI3       0.053200
@<TRIPOS>BOND
     1     1     2 ar  
     2     1     7 ar  
     3     1    26 1   
     4     2     3 ar  
     5     2    27 1   
     6     3     4 1   
     7     3     5 ar  
     8     5     6 ar  
     9     5    28 1   
    10     6     7 ar  
    11     6    29 1   
    12     7    25 1   
    13     8     9 1   
    14     8    10 ar  
    15     8    14 ar  
    16     9    30 1   
    17     9    31 1   
    18    10    11 ar  
    19    10    32 1   
    20    11    12 ar  
    21    11    54 1   
    22    12    13 ar  
    23    12    33 1   
    24    13    14 ar  
    25    13    20 1   
    26    15    16 1   
    27    15    19 1   
    28    15    34 1   
    29    16    17 1   
    30    16    35 1   
    31    16    36 1   
    32    17    18 1   
    33    17    21 1   
    34    17    37 1   
    35    18    19 1   
    36    18    20 1   
    37    18    38 1   
    38    19    39 1   
    39    19    40 1   
    40    20    41 1   
    41    20    42 1   
    42    21    22 1   
    43    21    46 1   
    44    22    23 1   
    45    22    47 1   
    46    22    48 1   
    47    23    24 1   
    48    23    49 1   
    49    23    50 1   
    50    24    25 1   
    51    24    51 1   
    52    25    52 1   
    53    25    53 1   
    54    43    54 1   
    55    44    54 1   
    56    45    54 1   
@<TRIPOS>SUBSTRUCTURE
     1 JI3         1 TEMP              0 ****  ****    0 ROOT
