@<TRIPOS>MOLECULE
JI4
   57    59     1     0     0
SMALL
bcc


@<TRIPOS>ATOM
      1 C1           0.0000     0.0000     0.0000 c3         1 JI4       0.137800
      2 N1           1.4690     0.0000     0.0000 n7         1 JI4      -0.586200
      3 C2          -0.5110    -0.0000    -1.4420 c3         1 JI4       0.141800
      4 N2          -1.9800    -0.0000    -1.4420 n7         1 JI4      -0.584200
      5 C3          -2.5070     0.0000    -2.8130 c3         1 JI4       0.146800
      6 C4          -4.0360    -0.0010    -2.7710 c3         1 JI4       0.027900
      7 N1'          3.0640     1.5800     2.8240 n7         1 JI4      -0.581200
      8 C11         -4.5760    -0.0010    -4.1780 ca         1 JI4      -0.063300
      9 C12         -4.8240    -1.1980    -4.8230 ca         1 JI4      -0.129000
     10 C13         -5.3200    -1.1970    -6.1160 ca         1 JI4       0.107900
     11 F13         -5.5630    -2.3660    -6.7460 f          1 JI4      -0.128900
     12 C14         -5.5690     0.0040    -6.7600 ca         1 JI4      -0.137000
     13 C15         -5.3210     1.1990    -6.1130 ca         1 JI4      -0.072000
     14 C16         -4.8300     1.1970    -4.8210 ca         1 JI4      -0.114000
     15 N11          6.3330    -0.0250     0.5720 nb         1 JI4      -0.648000
     16 C2'          1.8370     1.3980     2.0070 c3         1 JI4       0.106800
     17 C21          5.4760    -0.8080    -0.0560 ca         1 JI4       0.422600
     18 C3'          1.9960     0.0000     1.3720 c3         1 JI4       0.117500
     19 C31          5.9040    -1.9540    -0.6950 ca         1 JI4      -0.273300
     20 C4'          3.5160    -0.2650     1.3620 c3         1 JI4      -0.036700
     21 C41          7.2530    -2.2820    -0.6750 ca         1 JI4      -0.014300
     22 C5'          4.1470     0.9950     1.9920 c3         1 JI4       0.137800
     23 C51          8.1270    -1.4410    -0.0100 ca         1 JI4      -0.295300
     24 C61          7.6270    -0.3020     0.6140 ca         1 JI4       0.511200
     25 N61          8.4930     0.5520     1.2860 nv         1 JI4      -0.561500
     26 C71          4.0140    -0.4470    -0.0740 c3         1 JI4      -0.072700
     27 C81          7.7550    -3.5260    -1.3630 c3         1 JI4       0.061200
     28 H1          -0.3610    -0.8840     0.5110 h1         1 JI4       0.013700
     29 H1A         -0.3610     0.8850     0.5110 h1         1 JI4       0.013700
     30 HN1          1.8020     0.8090    -0.4850 hn         1 JI4       0.259800
     31 H2          -0.1500     0.8840    -1.9530 h1         1 JI4       0.010700
     32 H2A         -0.1500    -0.8850    -1.9520 h1         1 JI4       0.010700
     33 HN2         -2.3130     0.8080    -0.9560 hn         1 JI4       0.249800
     34 H3          -2.1600     0.8850    -3.3330 h1         1 JI4       0.010700
     35 H3A         -2.1590    -0.8840    -3.3340 h1         1 JI4       0.010700
     36 H4          -4.3840     0.8840    -2.2510 hc         1 JI4       0.025200
     37 H4A         -4.3830    -0.8850    -2.2510 hc         1 JI4       0.025200
     38 HN1'         3.2360     2.5570     2.9570 hn         1 JI4       0.250800
     39 H12         -4.6780    -2.1350    -4.3000 ha         1 JI4       0.124000
     40 H14         -5.9560     0.0050    -7.7720 ha         1 JI4       0.118000
     41 H15         -5.5180     2.1380    -6.6160 ha         1 JI4       0.106000
     42 H16         -4.6360     2.1350    -4.3140 ha         1 JI4       0.108000
     43 H2'          0.9570     1.4270     2.6390 h1         1 JI4       0.010700
     44 H2'A         1.7820     2.1580     1.2370 h1         1 JI4       0.010700
     45 H3'          1.4900    -0.7450     1.9750 h1         1 JI4       0.047700
     46 H31          5.1940    -2.5920    -1.2080 ha         1 JI4       0.121000
     47 H4'          3.7470    -1.1380     1.9600 hc         1 JI4       0.040700
     48 H5'          4.9930     0.7220     2.6110 h1         1 JI4       0.025700
     49 H5'A         4.4460     1.6920     1.2190 h1         1 JI4       0.025700
     50 H51          9.1860    -1.6660     0.0260 ha         1 JI4       0.119000
     51 HN61         8.3060     1.5350     1.3130 hn         1 JI4       0.269800
     52 HN6A         9.3120     0.1860     1.7310 hn         1 JI4       0.269800
     53 H71          3.4530    -1.2400    -0.5530 hc         1 JI4       0.033700
     54 H71A         3.8770     0.4760    -0.6240 hc         1 JI4       0.033700
     55 H81          8.7790    -3.7150    -1.0650 hc         1 JI4       0.010033
     56 H81A         7.7110    -3.3880    -2.4360 hc         1 JI4       0.010033
     57 H81B         7.1350    -4.3690    -1.0810 hc         1 JI4       0.010033
@<TRIPOS>BOND
     1     1     2 1   
     2     1     3 1   
     3     1    28 1   
     4     1    29 1   
     5     2    18 1   
     6     2    30 1   
     7     3     4 1   
     8     3    31 1   
     9     3    32 1   
    10     4     5 1   
    11     4    33 1   
    12     5     6 1   
    13     5    34 1   
    14     5    35 1   
    15     6     8 1   
    16     6    36 1   
    17     6    37 1   
    18     7    16 1   
    19     7    22 1   
    20     7    38 1   
    21     8     9 ar  
    22     8    14 ar  
    23     9    10 ar  
    24     9    39 1   
    25    10    11 1   
    26    10    12 ar  
    27    12    13 ar  
    28    12    40 1   
    29    13    14 ar  
    30    13    41 1   
    31    14    42 1   
    32    15    17 ar  
    33    15    24 ar  
    34    16    18 1   
    35    16    43 1   
    36    16    44 1   
    37    17    19 ar  
    38    17    26 1   
    39    18    20 1   
    40    18    45 1   
    41    19    21 ar  
    42    19    46 1   
    43    20    22 1   
    44    20    26 1   
    45    20    47 1   
    46    21    23 ar  
    47    21    27 1   
    48    22    48 1   
    49    22    49 1   
    50    23    24 ar  
    51    23    50 1   
    52    24    25 1   
    53    25    51 1   
    54    25    52 1   
    55    26    53 1   
    56    26    54 1   
    57    27    55 1   
    58    27    56 1   
    59    27    57 1   
@<TRIPOS>SUBSTRUCTURE
     1 JI4         1 TEMP              0 ****  ****    0 ROOT
