@<TRIPOS>MOLECULE
JI5
   57    59     1     0     0
SMALL
bcc


@<TRIPOS>ATOM
      1 C1           0.0000     0.0000     0.0000 c3         1 JI5       0.138800
      2 N1           1.4690     0.0000     0.0000 n7         1 JI5      -0.582200
      3 C2          -0.5100     0.0000    -1.4430 c3         1 JI5       0.141800
      4 N2          -1.9800     0.0000    -1.4430 n7         1 JI5      -0.584200
      5 C3          -2.5060     0.0000    -2.8130 c3         1 JI5       0.145800
      6 C4          -4.0360     0.0010    -2.7730 c3         1 JI5       0.027900
      7 N1'          3.3480    -1.4520     2.7150 n7         1 JI5      -0.574200
      8 C11         -4.5750    -0.0000    -4.1800 ca         1 JI5      -0.063300
      9 N11          5.4400     2.6100     0.8090 nb         1 JI5      -0.649000
     10 C12         -4.8230    -1.1970    -4.8250 ca         1 JI5      -0.133000
     11 C13         -5.3200    -1.1960    -6.1170 ca         1 JI5       0.106900
     12 F13         -5.5620    -2.3660    -6.7490 f          1 JI5      -0.129900
     13 C14         -5.5680     0.0040    -6.7620 ca         1 JI5      -0.137000
     14 C15         -5.3190     1.2000    -6.1140 ca         1 JI5      -0.072000
     15 C16         -4.8290     1.1980    -4.8220 ca         1 JI5      -0.109000
     16 C2'          2.1040    -1.4450     1.9040 c3         1 JI5       0.108800
     17 C21          5.2460     1.5610     0.0330 ca         1 JI5       0.430600
     18 C3'          1.9950     0.0000     1.3720 c3         1 JI5       0.116500
     19 C31          6.2770     1.0430    -0.7270 ca         1 JI5      -0.292300
     20 C4'          3.4380     0.5450     1.3910 c3         1 JI5      -0.041700
     21 C41          7.5300     1.6380    -0.6710 ca         1 JI5      -0.006300
     22 C5'          4.2980    -0.6180     1.9350 c3         1 JI5       0.133800
     23 C51          7.7020     2.7370     0.1500 ca         1 JI5      -0.311300
     24 C61          6.6200     3.2070     0.8890 ca         1 JI5       0.515200
     25 N61          6.7800     4.3100     1.7190 nv         1 JI5      -0.540500
     26 C71          3.8840     0.9190    -0.0240 c3         1 JI5      -0.068700
     27 C81          8.6760     1.0980    -1.4880 c3         1 JI5       0.060200
     28 H1          -0.3610    -0.8850     0.5110 h1         1 JI5       0.013200
     29 H1A         -0.3610     0.8840     0.5110 h1         1 JI5       0.013200
     30 HN1          1.8020    -0.8090    -0.4850 hn         1 JI5       0.256800
     31 H2          -0.1490    -0.8840    -1.9530 h1         1 JI5       0.011700
     32 H2A         -0.1490     0.8850    -1.9530 h1         1 JI5       0.011700
     33 HN2         -2.3130    -0.8090    -0.9570 hn         1 JI5       0.250800
     34 H3          -2.1590    -0.8840    -3.3340 h1         1 JI5       0.010700
     35 H3A         -2.1590     0.8850    -3.3330 h1         1 JI5       0.010700
     36 H4          -4.3830    -0.8840    -2.2530 hc         1 JI5       0.025200
     37 H4A         -4.3830     0.8850    -2.2540 hc         1 JI5       0.025200
     38 HN1'         3.7000    -2.3870     2.7790 hn         1 JI5       0.249800
     39 H12         -4.6430    -2.1350    -4.3140 ha         1 JI5       0.120000
     40 H14         -5.9550     0.0050    -7.7740 ha         1 JI5       0.119000
     41 H15         -5.5150     2.1390    -6.6180 ha         1 JI5       0.107000
     42 H16         -4.6340     2.1360    -4.3160 ha         1 JI5       0.112000
     43 H2'          2.1880    -2.1440     1.0800 h1         1 JI5       0.011700
     44 H2'A         1.2490    -1.6830     2.5240 h1         1 JI5       0.011700
     45 H3'          1.3630     0.5920     2.0230 h1         1 JI5       0.048700
     46 H31          6.1080     0.1800    -1.3610 ha         1 JI5       0.118000
     47 H4'          3.5060     1.4000     2.0520 hc         1 JI5       0.058700
     48 H5'          5.0810    -0.2370     2.5780 h1         1 JI5       0.015700
     49 H5'A         4.7170    -1.1910     1.1160 h1         1 JI5       0.015700
     50 H51          8.6660     3.2260     0.2170 ha         1 JI5       0.118000
     51 HN61         7.6990     4.6310     1.9520 hn         1 JI5       0.269800
     52 HN6A         5.9770     4.8090     2.0470 hn         1 JI5       0.269800
     53 H71          3.1740     1.6150    -0.4540 hc         1 JI5       0.034700
     54 H71A         3.9310     0.0260    -0.6360 hc         1 JI5       0.034700
     55 H81          8.3260     0.8550    -2.4840 hc         1 JI5       0.009033
     56 H81A         9.4570     1.8460    -1.5520 hc         1 JI5       0.009033
     57 H81B         9.0680     0.2060    -1.0150 hc         1 JI5       0.009033
@<TRIPOS>BOND
     1     1     2 1   
     2     1     3 1   
     3     1    28 1   
     4     1    29 1   
     5     2    18 1   
     6     2    30 1   
     7     3     4 1   
     8     3    31 1   
     9     3    32 1   
    10     4     5 1   
    11     4    33 1   
    12     5     6 1   
    13     5    34 1   
    14     5    35 1   
    15     6     8 1   
    16     6    36 1   
    17     6    37 1   
    18     7    16 1   
    19     7    22 1   
    20     7    38 1   
    21     8    10 ar  
    22     8    15 ar  
    23     9    17 ar  
    24     9    24 ar  
    25    10    11 ar  
    26    10    39 1   
    27    11    12 1   
    28    11    13 ar  
    29    13    14 ar  
    30    13    40 1   
    31    14    15 ar  
    32    14    41 1   
    33    15    42 1   
    34    16    18 1   
    35    16    43 1   
    36    16    44 1   
    37    17    19 ar  
    38    17    26 1   
    39    18    20 1   
    40    18    45 1   
    41    19    21 ar  
    42    19    46 1   
    43    20    22 1   
    44    20    26 1   
    45    20    47 1   
    46    21    23 ar  
    47    21    27 1   
    48    22    48 1   
    49    22    49 1   
    50    23    24 ar  
    51    23    50 1   
    52    24    25 1   
    53    25    51 1   
    54    25    52 1   
    55    26    53 1   
    56    26    54 1   
    57    27    55 1   
    58    27    56 1   
    59    27    57 1   
@<TRIPOS>SUBSTRUCTURE
     1 JI5         1 TEMP              0 ****  ****    0 ROOT
