@<TRIPOS>MOLECULE
molecule
   57    59     1     0     0
SMALL
bcc


@<TRIPOS>ATOM
      1 C1           0.0000     0.0000     0.0000 c3         1 JI5       0.152800
      2 N1           1.4690     0.0000     0.0000 n7         1 JI5      -0.815200
      3 C2          -0.5100     0.0000    -1.4430 c3         1 JI5       0.155800
      4 N2          -1.9800     0.0000    -1.4430 n7         1 JI5      -0.821200
      5 C3          -2.5060     0.0000    -2.8130 c3         1 JI5       0.162800
      6 C4          -4.0360     0.0010    -2.7730 c3         1 JI5      -0.038100
      7 N1'          3.3480    -1.4520     2.7150 n7         1 JI5      -0.787200
      8 C11         -4.5750    -0.0000    -4.1800 ca         1 JI5      -0.058300
      9 N11          5.4400     2.6100     0.8090 nb         1 JI5      -0.767000
     10 C12         -4.8230    -1.1970    -4.8250 ca         1 JI5      -0.166000
     11 C13         -5.3200    -1.1960    -6.1170 ca         1 JI5       0.134900
     12 F13         -5.5620    -2.3660    -6.7490 f          1 JI5      -0.142900
     13 C14         -5.5680     0.0040    -6.7620 ca         1 JI5      -0.170000
     14 C15         -5.3190     1.2000    -6.1140 ca         1 JI5      -0.101000
     15 C16         -4.8290     1.1980    -4.8220 ca         1 JI5      -0.139000
     16 C2'          2.1040    -1.4450     1.9040 c3         1 JI5       0.102800
     17 C21          5.2460     1.5610     0.0330 ca         1 JI5       0.475600
     18 C3'          1.9950     0.0000     1.3720 c3         1 JI5       0.161500
     19 C31          6.2770     1.0430    -0.7270 ca         1 JI5      -0.314300
     20 C4'          3.4380     0.5450     1.3910 c3         1 JI5      -0.057700
     21 C41          7.5300     1.6380    -0.6710 ca         1 JI5      -0.006300
     22 C5'          4.2980    -0.6180     1.9350 c3         1 JI5       0.134800
     23 C51          7.7020     2.7370     0.1500 ca         1 JI5      -0.328300
     24 C61          6.6200     3.2070     0.8890 ca         1 JI5       0.709200
     25 N61          6.7800     4.3100     1.7190 nv         1 JI5      -1.018500
     26 C71          3.8840     0.9190    -0.0240 c3         1 JI5      -0.109700
     27 C81          8.6760     1.0980    -1.4880 c3         1 JI5      -0.049800
     28 H1          -0.3610    -0.8850     0.5110 h1         1 JI5       0.040200
     29 H1A         -0.3610     0.8840     0.5110 h1         1 JI5       0.040200
     30 HN1          1.8020    -0.8090    -0.4850 hn         1 JI5       0.350800
     31 H2          -0.1490    -0.8840    -1.9530 h1         1 JI5       0.038700
     32 H2A         -0.1490     0.8850    -1.9530 h1         1 JI5       0.038700
     33 HN2         -2.3130    -0.8090    -0.9570 hn         1 JI5       0.349800
     34 H3          -2.1590    -0.8840    -3.3340 h1         1 JI5       0.037700
     35 H3A         -2.1590     0.8850    -3.3330 h1         1 JI5       0.037700
     36 H4          -4.3830    -0.8840    -2.2530 hc         1 JI5       0.057700
     37 H4A         -4.3830     0.8850    -2.2540 hc         1 JI5       0.057700
     38 HN1'         3.7000    -2.3870     2.7790 hn         1 JI5       0.344800
     39 H12         -4.6430    -2.1350    -4.3140 ha         1 JI5       0.144000
     40 H14         -5.9550     0.0050    -7.7740 ha         1 JI5       0.145000
     41 H15         -5.5150     2.1390    -6.6180 ha         1 JI5       0.137000
     42 H16         -4.6340     2.1360    -4.3160 ha         1 JI5       0.138000
     43 H2'          2.1880    -2.1440     1.0800 h1         1 JI5       0.037700
     44 H2'A         1.2490    -1.6830     2.5240 h1         1 JI5       0.037700
     45 H3'          1.3630     0.5920     2.0230 h1         1 JI5       0.077700
     46 H31          6.1080     0.1800    -1.3610 ha         1 JI5       0.134000
     47 H4'          3.5060     1.4000     2.0520 hc         1 JI5       0.087700
     48 H5'          5.0810    -0.2370     2.5780 h1         1 JI5       0.043700
     49 H5'A         4.7170    -1.1910     1.1160 h1         1 JI5       0.043700
     50 H51          8.6660     3.2260     0.2170 ha         1 JI5       0.133000
     51 HN61         7.6990     4.6310     1.9520 hn         1 JI5       0.438300
     52 HN6A         5.9770     4.8090     2.0470 hn         1 JI5       0.438300
     53 H71          3.1740     1.6150    -0.4540 hc         1 JI5       0.065200
     54 H71A         3.9310     0.0260    -0.6360 hc         1 JI5       0.065200
     55 H81          8.3260     0.8550    -2.4840 hc         1 JI5       0.046367
     56 H81A         9.4570     1.8460    -1.5520 hc         1 JI5       0.046367
     57 H81B         9.0680     0.2060    -1.0150 hc         1 JI5       0.046367
@<TRIPOS>BOND
     1     1     2 1
     2     1     3 1
     3     2    18 1
     4     3     4 1
     5     4     5 1
     6     5     6 1
     7     6     8 1
     8     7    16 1
     9     7    22 1
    10     8    10 ar
    11     8    15 ar
    12     9    17 ar
    13     9    24 ar
    14    10    11 ar
    15    11    12 1
    16    11    13 ar
    17    13    14 ar
    18    14    15 ar
    19    16    18 1
    20    17    19 ar
    21    17    26 1
    22    18    20 1
    23    19    21 ar
    24    20    22 1
    25    20    26 1
    26    21    23 ar
    27    21    27 1
    28    23    24 ar
    29    24    25 1
    30     1    28 1
    31     1    29 1
    32     2    30 1
    33     3    31 1
    34     3    32 1
    35     4    33 1
    36     5    34 1
    37     5    35 1
    38     6    36 1
    39     6    37 1
    40     7    38 1
    41    10    39 1
    42    13    40 1
    43    14    41 1
    44    15    42 1
    45    16    43 1
    46    16    44 1
    47    18    45 1
    48    19    46 1
    49    20    47 1
    50    22    48 1
    51    22    49 1
    52    23    50 1
    53    25    51 1
    54    25    52 1
    55    26    53 1
    56    26    54 1
    57    27    55 1
    58    27    56 1
    59    27    57 1
@<TRIPOS>SUBSTRUCTURE
     1 JI5         1 TEMP              0 ****  ****    0 ROOT
