@<TRIPOS>MOLECULE
JI7
   54    56     1     0     0
SMALL
bcc


@<TRIPOS>ATOM
      1 C5           0.0000     0.0000     0.0000 ca         1 JI7      -0.283300
      2 C4           1.3830     0.0000     0.0000 ca         1 JI7      -0.018300
      3 C3           2.0450     0.0000     1.2200 ca         1 JI7      -0.269300
      4 C2           1.3110    -0.0010     2.3890 ca         1 JI7       0.415600
      5 N1          -0.0080    -0.0030     2.3590 nb         1 JI7      -0.633000
      6 C6          -0.6770     0.0040     1.2160 ca         1 JI7       0.509200
      7 C7           2.0250    -0.0020     3.7160 c3         1 JI7      -0.067700
      8 C4'          1.5370     1.1790     4.5580 c3         1 JI7      -0.054700
      9 C3'          2.2970     1.2290     5.9030 c3         1 JI7       0.110500
     10 C2'          1.1910     1.6330     6.9110 c3         1 JI7       0.145800
     11 N1'         -0.0050     0.9050     6.4140 n7         1 JI7      -0.589200
     12 C5'          0.0560     0.9880     4.9390 c3         1 JI7       0.128800
     13 N8           3.3590     2.2420     5.8630 n7         1 JI7      -0.579200
     14 C9           4.4250     1.9260     6.8230 c3         1 JI7       0.139800
     15 C10          5.5120     3.0010     6.7520 c3         1 JI7       0.140800
     16 N11          6.5770     2.6840     7.7110 n7         1 JI7      -0.579200
     17 C12          7.6410     3.6970     7.6710 c3         1 JI7       0.203100
     18 C26          8.7140     3.3390     8.6660 ca         1 JI7      -0.085300
     19 C25          9.7760     2.5430     8.2800 ca         1 JI7      -0.098000
     20 C24         10.7610     2.2140     9.1920 ca         1 JI7      -0.090000
     21 C23         10.6840     2.6810    10.4910 ca         1 JI7      -0.099000
     22 C22          9.6220     3.4770    10.8790 ca         1 JI7      -0.034600
     23 C21          8.6390     3.8110     9.9630 ca         1 JI7      -0.075000
     24 Cl           9.5240     4.0630    12.5100 cl         1 JI7      -0.027400
     25 C8           2.1530     0.0010    -1.2950 c3         1 JI7       0.060200
     26 N6          -2.0660     0.0030     1.2300 nv         1 JI7      -0.573500
     27 H5          -0.5490     0.0030    -0.9340 ha         1 JI7       0.120000
     28 H3           3.1280     0.0010     1.2540 ha         1 JI7       0.118000
     29 H71          1.8160    -0.9280     4.2380 hc         1 JI7       0.025700
     30 H72          3.0920     0.0870     3.5520 hc         1 JI7       0.025700
     31 H4'          1.6680     2.1110     4.0200 hc         1 JI7       0.039700
     32 H3'          2.6980     0.2530     6.1500 h1         1 JI7       0.029700
     33 H2'1         1.4480     1.3050     7.9100 h1         1 JI7       0.016700
     34 H2'2         1.0240     2.7030     6.8830 h1         1 JI7       0.016700
     35 HN1'        -0.8330     1.3630     6.7390 hn         1 JI7       0.250800
     36 H5'1        -0.5250     1.8350     4.5930 h1         1 JI7       0.031200
     37 H5'2        -0.3210     0.0710     4.5020 h1         1 JI7       0.031200
     38 HN8          3.7430     2.2850     4.9400 hn         1 JI7       0.253800
     39 H91          4.8550     0.9610     6.5800 h1         1 JI7       0.013700
     40 H92          4.0120     1.8950     7.8240 h1         1 JI7       0.013700
     41 H101         5.9250     3.0310     5.7510 h1         1 JI7       0.010200
     42 H102         5.0820     3.9650     6.9950 h1         1 JI7       0.010200
     43 HN11         6.9640     1.7860     7.4960 hn         1 JI7       0.253800
     44 H121         7.2260     4.6660     7.9210 h1         1 JI7       0.011200
     45 H122         8.0680     3.7320     6.6760 h1         1 JI7       0.011200
     46 H25          9.8370     2.1770     7.2620 ha         1 JI7       0.104000
     47 H24         11.5940     1.5910     8.8890 ha         1 JI7       0.105000
     48 H23         11.4550     2.4210    11.2070 ha         1 JI7       0.114000
     49 H21          7.8060     4.4340    10.2650 ha         1 JI7       0.121000
     50 H81          2.4090     1.0190    -1.5630 hc         1 JI7       0.010367
     51 H82          1.5440    -0.4360    -2.0770 hc         1 JI7       0.010367
     52 H83          3.0600    -0.5800    -1.1760 hc         1 JI7       0.010367
     53 HN61        -2.5740     0.5770     0.5860 hn         1 JI7       0.271800
     54 HN62        -2.5590    -0.5370     1.9150 hn         1 JI7       0.271800
@<TRIPOS>BOND
     1     1     2 ar  
     2     1     6 ar  
     3     1    27 1   
     4     2     3 ar  
     5     2    25 1   
     6     3     4 ar  
     7     3    28 1   
     8     4     5 ar  
     9     4     7 1   
    10     5     6 ar  
    11     6    26 1   
    12     7     8 1   
    13     7    29 1   
    14     7    30 1   
    15     8     9 1   
    16     8    12 1   
    17     8    31 1   
    18     9    10 1   
    19     9    13 1   
    20     9    32 1   
    21    10    11 1   
    22    10    33 1   
    23    10    34 1   
    24    11    12 1   
    25    11    35 1   
    26    12    36 1   
    27    12    37 1   
    28    13    14 1   
    29    13    38 1   
    30    14    15 1   
    31    14    39 1   
    32    14    40 1   
    33    15    16 1   
    34    15    41 1   
    35    15    42 1   
    36    16    17 1   
    37    16    43 1   
    38    17    18 1   
    39    17    44 1   
    40    17    45 1   
    41    18    19 ar  
    42    18    23 ar  
    43    19    20 ar  
    44    19    46 1   
    45    20    21 ar  
    46    20    47 1   
    47    21    22 ar  
    48    21    48 1   
    49    22    23 ar  
    50    22    24 1   
    51    23    49 1   
    52    25    50 1   
    53    25    51 1   
    54    25    52 1   
    55    26    53 1   
    56    26    54 1   
@<TRIPOS>SUBSTRUCTURE
     1 JI7         1 TEMP              0 ****  ****    0 ROOT
