@<TRIPOS>MOLECULE
molecule
   54    56     1     0     0
SMALL
bcc


@<TRIPOS>ATOM
      1 C5           0.0000     0.0000     0.0000 ca         1 JI7      -0.303300
      2 C4           1.3830     0.0000     0.0000 ca         1 JI7      -0.016300
      3 C3           2.0450     0.0000     1.2200 ca         1 JI7      -0.294300
      4 C2           1.3110    -0.0010     2.3890 ca         1 JI7       0.465600
      5 N1          -0.0080    -0.0030     2.3590 nb         1 JI7      -0.755000
      6 C6          -0.6770     0.0040     1.2160 ca         1 JI7       0.701200
      7 C7           2.0250    -0.0020     3.7160 c3         1 JI7      -0.121700
      8 C4'          1.5370     1.1790     4.5580 c3         1 JI7      -0.079700
      9 C3'          2.2970     1.2290     5.9030 c3         1 JI7       0.159500
     10 C2'          1.1910     1.6330     6.9110 c3         1 JI7       0.148800
     11 N1'         -0.0050     0.9050     6.4140 n7         1 JI7      -0.805200
     12 C5'          0.0560     0.9880     4.9390 c3         1 JI7       0.148800
     13 N8           3.3590     2.2420     5.8630 n7         1 JI7      -0.817200
     14 C9           4.4250     1.9260     6.8230 c3         1 JI7       0.155800
     15 C10          5.5120     3.0010     6.7520 c3         1 JI7       0.154800
     16 N11          6.5770     2.6840     7.7110 n7         1 JI7      -0.814200
     17 C12          7.6410     3.6970     7.6710 c3         1 JI7       0.206100
     18 C26          8.7140     3.3390     8.6660 ca         1 JI7      -0.077300
     19 C25          9.7760     2.5430     8.2800 ca         1 JI7      -0.126000
     20 C24         10.7610     2.2140     9.1920 ca         1 JI7      -0.120000
     21 C23         10.6840     2.6810    10.4910 ca         1 JI7      -0.120000
     22 C22          9.6220     3.4770    10.8790 ca         1 JI7       0.028400
     23 C21          8.6390     3.8110     9.9630 ca         1 JI7      -0.098000
     24 Cl           9.5240     4.0630    12.5100 cl         1 JI7      -0.109400
     25 C8           2.1530     0.0010    -1.2950 c3         1 JI7      -0.050800
     26 N6          -2.0660     0.0030     1.2300 nv         1 JI7      -1.038500
     27 H5          -0.5490     0.0030    -0.9340 ha         1 JI7       0.138000
     28 H3           3.1280     0.0010     1.2540 ha         1 JI7       0.135000
     29 H71          1.8160    -0.9280     4.2380 hc         1 JI7       0.057200
     30 H72          3.0920     0.0870     3.5520 hc         1 JI7       0.057200
     31 H4'          1.6680     2.1110     4.0200 hc         1 JI7       0.064700
     32 H3'          2.6980     0.2530     6.1500 h1         1 JI7       0.046700
     33 H2'1         1.4480     1.3050     7.9100 h1         1 JI7       0.047200
     34 H2'2         1.0240     2.7030     6.8830 h1         1 JI7       0.047200
     35 HN1'        -0.8330     1.3630     6.7390 hn         1 JI7       0.345800
     36 H5'1        -0.5250     1.8350     4.5930 h1         1 JI7       0.058200
     37 H5'2        -0.3210     0.0710     4.5020 h1         1 JI7       0.058200
     38 HN8          3.7430     2.2850     4.9400 hn         1 JI7       0.351800
     39 H91          4.8550     0.9610     6.5800 h1         1 JI7       0.040200
     40 H92          4.0120     1.8950     7.8240 h1         1 JI7       0.040200
     41 H101         5.9250     3.0310     5.7510 h1         1 JI7       0.037700
     42 H102         5.0820     3.9650     6.9950 h1         1 JI7       0.037700
     43 HN11         6.9640     1.7860     7.4960 hn         1 JI7       0.353800
     44 H121         7.2260     4.6660     7.9210 h1         1 JI7       0.041200
     45 H122         8.0680     3.7320     6.6760 h1         1 JI7       0.041200
     46 H25          9.8370     2.1770     7.2620 ha         1 JI7       0.130000
     47 H24         11.5940     1.5910     8.8890 ha         1 JI7       0.136000
     48 H23         11.4550     2.4210    11.2070 ha         1 JI7       0.143000
     49 H21          7.8060     4.4340    10.2650 ha         1 JI7       0.150000
     50 H81          2.4090     1.0190    -1.5630 hc         1 JI7       0.047700
     51 H82          1.5440    -0.4360    -2.0770 hc         1 JI7       0.047700
     52 H83          3.0600    -0.5800    -1.1760 hc         1 JI7       0.047700
     53 HN61        -2.5740     0.5770     0.5860 hn         1 JI7       0.437800
     54 HN62        -2.5590    -0.5370     1.9150 hn         1 JI7       0.437800
@<TRIPOS>BOND
     1    24    22 1
     2    22    21 ar
     3    22    23 ar
     4    21    20 ar
     5    23    18 ar
     6    20    19 ar
     7    18    19 ar
     8    18    17 1
     9    17    16 1
    10    16    15 1
    11    15    14 1
    12    10    11 1
    13    10     9 1
    14    11    12 1
    15     9    13 1
    16     9     8 1
    17    14    13 1
    18     7     8 1
    19     7     4 1
    20     5     4 ar
    21     5     6 ar
    22     8    12 1
    23    26     6 1
    24     4     3 ar
    25     6     1 ar
    26     3     2 ar
    27     1     2 ar
    28     2    25 1
    29     1    27 1
    30     3    28 1
    31     7    29 1
    32     7    30 1
    33     8    31 1
    34     9    32 1
    35    10    33 1
    36    10    34 1
    37    11    35 1
    38    12    36 1
    39    12    37 1
    40    13    38 1
    41    14    39 1
    42    14    40 1
    43    15    41 1
    44    15    42 1
    45    16    43 1
    46    17    44 1
    47    17    45 1
    48    19    46 1
    49    20    47 1
    50    21    48 1
    51    23    49 1
    52    25    50 1
    53    25    51 1
    54    25    52 1
    55    26    53 1
    56    26    54 1
@<TRIPOS>SUBSTRUCTURE
     1 JI7         1 TEMP              0 ****  ****    0 ROOT
