@<TRIPOS>MOLECULE
molecule
   13    13     1     0     0
SMALL
bcc


@<TRIPOS>ATOM
      1 C1           0.0000     0.0000     0.0000 ca         1 JIF       0.145100
      2 C2           1.3870     0.0000     0.0000 ca         1 JIF      -0.189000
      3 C3           2.0790     0.0000     1.1990 ca         1 JIF       0.138400
      4 C4           1.3860    -0.0000     2.3990 ca         1 JIF       0.049900
      5 C5          -0.0000    -0.0000     2.4000 ca         1 JIF       0.138400
      6 F2           3.4300     0.0000     1.1990 f          1 JIF      -0.115900
      7 O           -0.6800    -0.0050    -1.1770 oh         1 JIF      -0.510100
      8 F1           2.0620    -0.0010     3.5680 f          1 JIF      -0.112900
      9 F           -0.6750     0.0000     3.5690 f          1 JIF      -0.115900
     10 C           -0.6930    -0.0000     1.2020 ca         1 JIF      -0.189000
     11 H1           1.9290     0.0000    -0.9380 ha         1 JIF       0.167000
     12 H2          -0.8390     0.8830    -1.4520 ho         1 JIF       0.429000
     13 H3          -1.7760    -0.0000     1.2020 ha         1 JIF       0.167000
@<TRIPOS>BOND
     1     6     3 1
     2     8     4 1
     3     3     4 ar
     4     3     2 ar
     5     4     5 ar
     6     2     1 ar
     7     5     9 1
     8     5    10 ar
     9     1    10 ar
    10     1     7 1
    11     2    11 1
    12     7    12 1
    13    10    13 1
@<TRIPOS>SUBSTRUCTURE
     1 JIF         1 TEMP              0 ****  ****    0 ROOT
