@<TRIPOS>MOLECULE
JIL
   64    68     1     0     0
SMALL
bcc


@<TRIPOS>ATOM
      1 O01          0.0000     0.0000     0.0000 oh         1 JIL      -0.543800
      2 C02          1.4290     0.0000     0.0000 c3         1 JIL       0.138100
      3 C03          1.9810     0.0000     1.4460 c3         1 JIL       0.127100
      4 C04          2.2940    -1.4820     1.7320 c3         1 JIL       0.147800
      5 O05          1.9010    -2.2320     0.5700 os         1 JIL      -0.355600
      6 C06          1.9820    -1.3360    -0.5590 c3         1 JIL       0.170100
      7 C07          1.1110    -1.8400    -1.7110 c3         1 JIL       0.085700
      8 S08          1.7850    -3.4020    -2.3390 ss         1 JIL      -0.400200
      9 C09          0.6370    -3.8340    -3.6760 c3         1 JIL       0.086700
     10 C10          1.0740    -5.1500    -4.3200 c3         1 JIL       0.158800
     11 N11          0.1440    -5.5000    -5.4030 n7         1 JIL      -0.566200
     12 C12          0.5350    -6.7610    -6.0450 c3         1 JIL       0.151800
     13 C13         -0.4550    -7.0910    -7.1650 c3         1 JIL       0.113500
     14 N14         -0.5370    -5.9590    -8.1010 n7         1 JIL      -0.557200
     15 C15         -1.6610    -6.1440    -9.0250 c3         1 JIL       0.207100
     16 C16         -1.5820    -7.4950    -9.6860 ca         1 JIL      -0.145300
     17 C17         -2.3210    -7.7100   -10.8400 ca         1 JIL       0.000000
     18 C18         -2.2810    -8.9340   -11.4770 ca         1 JIL      -0.451200
     19 N19         -3.0730    -9.1560   -12.7080 no         1 JIL       1.048200
     20 O20         -3.7620    -8.2570   -13.1600 o          1 JIL      -0.450000
     21 O21         -3.0380   -10.2360   -13.2690 o          1 JIL      -0.450000
     22 C22         -1.5010    -9.9520   -10.9640 ca         1 JIL      -0.011000
     23 C23         -0.7620    -9.7400    -9.8160 ca         1 JIL      -0.119000
     24 C24         -0.8000    -8.5110    -9.1760 ca         1 JIL      -0.023300
     25 C25          0.0290    -8.3220    -7.9330 c3         1 JIL      -0.010100
     26 N26          3.7290    -1.6510     1.9710 na         1 JIL       0.173000
     27 C27          4.3780    -1.4760     3.1690 ca         1 JIL       0.275800
     28 C28          5.7340    -1.7470     2.9170 ca         1 JIL      -0.245200
     29 N29          5.8400    -2.0660     1.6050 nc         1 JIL      -0.494100
     30 C30          4.6630    -2.0160     1.0490 cd         1 JIL       0.242700
     31 C31          6.6400    -1.6420     3.9850 ca         1 JIL       0.592200
     32 N32          7.9870    -1.8950     3.7980 nv         1 JIL      -0.479500
     33 N33          6.1740    -1.2930     5.1800 nb         1 JIL      -0.746000
     34 C34          4.8890    -1.0490     5.3680 ca         1 JIL       0.693900
     35 N35          4.0040    -1.1340     4.3970 nb         1 JIL      -0.686000
     36 O36          0.9950     0.4880     2.3580 oh         1 JIL      -0.542800
     37 H011        -0.3140     0.8240    -0.3340 ho         1 JIL       0.390000
     38 H021         1.8210     0.8410    -0.5590 h1         1 JIL       0.013700
     39 H031         2.8850     0.5930     1.5040 h1         1 JIL       0.022700
     40 H041         1.7280    -1.8170     2.5930 h2         1 JIL       0.089700
     41 H061         3.0120    -1.2170    -0.8750 h1         1 JIL       0.036700
     42 H071         0.1000    -2.0000    -1.3560 h1         1 JIL       0.051700
     43 H072         1.1020    -1.1050    -2.5060 h1         1 JIL       0.051700
     44 H091         0.6400    -3.0490    -4.4230 h1         1 JIL       0.039700
     45 H092        -0.3630    -3.9440    -3.2730 h1         1 JIL       0.039700
     46 H101         1.0710    -5.9350    -3.5730 h1         1 JIL       0.019700
     47 H102         2.0740    -5.0400    -4.7230 h1         1 JIL       0.019700
     48 H111        -0.7810    -5.5870    -5.0320 hn         1 JIL       0.253800
     49 H121         0.5280    -7.5580    -5.3110 h1         1 JIL       0.010200
     50 H122         1.5300    -6.6610    -6.4610 h1         1 JIL       0.010200
     51 H131        -1.4340    -7.2870    -6.7460 h1         1 JIL       0.041700
     52 H141         0.3160    -5.8930    -8.6210 hn         1 JIL       0.260800
     53 H151        -1.6070    -5.3810    -9.7910 h1         1 JIL       0.035200
     54 H152        -2.5840    -6.0890    -8.4610 h1         1 JIL       0.035200
     55 H171        -2.9390    -6.9150   -11.2390 ha         1 JIL       0.135000
     56 H221        -1.4670   -10.9140   -11.4610 ha         1 JIL       0.133000
     57 H231        -0.1500   -10.5380    -9.4140 ha         1 JIL       0.118000
     58 H251         1.0670    -8.1850    -8.2120 hc         1 JIL       0.035200
     59 H252        -0.0660    -9.1980    -7.3020 hc         1 JIL       0.035200
     60 H301         4.4580    -2.2330     0.0080 h5         1 JIL       0.044800
     61 H321         8.3260    -2.1570     2.8930 hn         1 JIL       0.276800
     62 H322         8.6230    -1.8170     4.5670 hn         1 JIL       0.276800
     63 H341         4.5510    -0.7670     6.3580 h5         1 JIL      -0.004900
     64 H361         1.2620     1.3300     2.6880 ho         1 JIL       0.392000
@<TRIPOS>BOND
     1     1     2 1   
     2     1    37 1   
     3     2     3 1   
     4     2     6 1   
     5     2    38 1   
     6     3     4 1   
     7     3    36 1   
     8     3    39 1   
     9     4     5 1   
    10     4    26 1   
    11     4    40 1   
    12     5     6 1   
    13     6     7 1   
    14     6    41 1   
    15     7     8 1   
    16     7    42 1   
    17     7    43 1   
    18     8     9 1   
    19     9    10 1   
    20     9    44 1   
    21     9    45 1   
    22    10    11 1   
    23    10    46 1   
    24    10    47 1   
    25    11    12 1   
    26    11    48 1   
    27    12    13 1   
    28    12    49 1   
    29    12    50 1   
    30    13    14 1   
    31    13    25 1   
    32    13    51 1   
    33    14    15 1   
    34    14    52 1   
    35    15    16 1   
    36    15    53 1   
    37    15    54 1   
    38    16    17 ar  
    39    16    24 ar  
    40    17    18 ar  
    41    17    55 1   
    42    18    19 1   
    43    18    22 ar  
    44    19    20 1   
    45    19    21 1   
    46    22    23 ar  
    47    22    56 1   
    48    23    24 ar  
    49    23    57 1   
    50    24    25 1   
    51    25    58 1   
    52    25    59 1   
    53    26    27 1   
    54    26    30 1   
    55    27    28 ar  
    56    27    35 ar  
    57    28    29 1   
    58    28    31 ar  
    59    29    30 2   
    60    30    60 1   
    61    31    32 1   
    62    31    33 ar  
    63    32    61 1   
    64    32    62 1   
    65    33    34 ar  
    66    34    35 ar  
    67    34    63 1   
    68    36    64 1   
@<TRIPOS>SUBSTRUCTURE
     1 JIL         1 TEMP              0 ****  ****    0 ROOT
