@<TRIPOS>MOLECULE
molecule
   19    18     1     0     0
SMALL
bcc


@<TRIPOS>ATOM
      1 OAA          0.0000     0.0000     0.0000 oh         1 JIM      -0.606800
      2 CAB          1.4290     0.0000     0.0000 c3         1 JIM       0.129400
      3 CAC          1.9390     0.0000     1.4420 c3         1 JIM       0.149100
      4 CAD          3.4630     0.1260     1.4440 c3         1 JIM       0.138400
      5 OAE          3.9370     0.2460     2.8110 os         1 JIM      -0.427900
      6 CAF          5.2630     0.3660     2.9880 c          1 JIM       0.632100
      7 OAG          6.0020     0.3700     2.0320 o          1 JIM      -0.551000
      8 OAH          1.5600    -1.2200     2.0810 oh         1 JIM      -0.592800
      9 CAI          5.8290     0.4930     4.3790 c3         1 JIM      -0.138100
     10 HOAA        -0.3140     0.0190    -0.8890 ho         1 JIM       0.408000
     11 HAB          1.7900     0.8850    -0.5110 h1         1 JIM       0.032200
     12 HABA         1.7900    -0.8850    -0.5110 h1         1 JIM       0.032200
     13 HAC          1.5070     0.8370     1.9780 h1         1 JIM       0.053700
     14 HAD          3.8990    -0.7540     0.9860 h1         1 JIM       0.059200
     15 HADA         3.7530     1.0060     0.8830 h1         1 JIM       0.059200
     16 HOAH         0.9760    -1.0320     2.7980 ho         1 JIM       0.413000
     17 HAI          5.4300     1.3830     4.8500 hc         1 JIM       0.069700
     18 HAIA         6.9080     0.5660     4.3240 hc         1 JIM       0.069700
     19 HAIB         5.5550    -0.3780     4.9610 hc         1 JIM       0.069700
@<TRIPOS>BOND
     1     2     1 1
     2     1    10 1
     3     2     3 1
     4     2    11 1
     5     2    12 1
     6     4     3 1
     7     8     3 1
     8     3    13 1
     9     5     4 1
    10     4    14 1
    11     4    15 1
    12     6     5 1
    13     7     6 2
    14     6     9 1
    15     8    16 1
    16     9    17 1
    17     9    18 1
    18     9    19 1
@<TRIPOS>SUBSTRUCTURE
     1 JIM         1 TEMP              0 ****  ****    0 ROOT
