@<TRIPOS>MOLECULE
JIM
   19    18     1     0     0
SMALL
bcc


@<TRIPOS>ATOM
      1 OAA         0.0460    0.2860    0.3540 oh        1 JIM     -0.611800
      2 CAB         1.4580    0.3220    0.2240 c3        1 JIM      0.092400
      3 CAC         2.0170   -0.2360    1.5380 c3        1 JIM      0.140100
      4 CAD         3.5450   -0.2970    1.4810 c3        1 JIM      0.138400
      5 OAE         4.0050    0.2950    2.7060 os        1 JIM     -0.443900
      6 CAF         5.3550    0.2700    2.9290 c         1 JIM      0.635100
      7 OAG         6.0820   -0.2100    2.0570 o         1 JIM     -0.543000
      8 OAH         1.5670   -1.5660    1.7430 oh        1 JIM     -0.599800
      9 CAI         5.7380    0.8550    4.2430 c3        1 JIM     -0.150100
     10 HOAA       -0.3200    0.5460   -0.4980 ho        1 JIM      0.410000
     11 HAB         1.7850   -0.3140   -0.6410 h1        1 JIM      0.037700
     12 HABA        1.8050    1.3770    0.0700 h1        1 JIM      0.037700
     13 HAC         1.6780    0.4120    2.3960 h1        1 JIM      0.069700
     14 HAD         3.9550    0.2930    0.6230 h1        1 JIM      0.068200
     15 HADA        3.9060   -1.3570    1.4220 h1        1 JIM      0.068200
     16 HOAH        0.6020   -1.5380    1.7100 ho        1 JIM      0.421000
     17 HAI         4.8710    1.3750    4.7180 hc        1 JIM      0.077033
     18 HAIA        6.5740    1.5790    4.0900 hc        1 JIM      0.077033
     19 HAIB        6.0850    0.0300    4.9140 hc        1 JIM      0.077033
@<TRIPOS>BOND
     1    1    2 1   
     2    1   10 1   
     3    2    3 1   
     4    2   11 1   
     5    2   12 1   
     6    3    4 1   
     7    3    8 1   
     8    3   13 1   
     9    4    5 1   
    10    4   14 1   
    11    4   15 1   
    12    5    6 1   
    13    6    7 2   
    14    6    9 1   
    15    8   16 1   
    16    9   17 1   
    17    9   18 1   
    18    9   19 1   
@<TRIPOS>SUBSTRUCTURE
     1 JIM         1 TEMP              0 ****  ****    0 ROOT
