@<TRIPOS>MOLECULE
JIN
   44    46     1     0     0
SMALL
bcc


@<TRIPOS>ATOM
      1 C10         0.2850   -0.4880    0.9320 c2        1 JIN      0.072000
      2 C12         2.2300    0.9930    1.2180 c2        1 JIN      0.368000
      3 C13         2.3140    2.6490    3.0500 c3        1 JIN     -0.086000
      4 C15         3.6040   -0.3420   -2.6380 c2        1 JIN     -0.112000
      5 C16         3.4960   -1.6560   -2.7070 c1        1 JIN     -0.126000
      6 C19         2.1700   -0.7000   -0.6370 c2        1 JIN     -0.039000
      7 C20         2.5190    0.2510   -1.7730 c3        1 JIN     -0.003000
      8 C27        -2.1600   -0.7020    4.8010 c2        1 JIN     -0.140000
      9 C30        -1.5790   -1.1510    8.3690 c2        1 JIN      0.174000
     10 C31        -1.5540    0.2300    8.8350 c2        1 JIN     -0.503000
     11 F35        -1.5530   -2.0980    9.3390 f         1 JIN     -0.095000
     12 C29        -1.6380   -1.5040    7.0510 c2        1 JIN     -0.142000
     13 C28        -1.6140   -0.4900    6.0120 c2        1 JIN     -0.063000
     14 C26        -1.0250    0.7390    9.9310 c1        1 JIN      0.282000
     15 N08        -2.1680    0.2560    3.6990 n4        1 JIN      0.045000
     16 C04        -1.6020    1.6220    4.0940 c2        1 JIN      0.075000
     17 N03        -2.4080    2.3840    4.7710 n2        1 JIN     -0.281000
     18 C02        -1.5360   -0.3710    2.5340 c1        1 JIN     -0.105000
     19 N05        -0.2830    1.9370    3.7170 n2        1 JIN     -0.328000
     20 C06         0.3190    1.2510    2.7370 c2        1 JIN      0.245000
     21 N11         1.6120    1.6000    2.3440 n         1 JIN     -0.253000
     22 O14         3.3560    1.4020    0.8810 o         1 JIN     -0.342000
     23 C09         1.5110   -0.0880    0.5120 c2        1 JIN     -0.191000
     24 C01        -0.3480    0.1220    2.0660 c2        1 JIN     -0.318000
     25 C18         2.4410   -2.0380   -0.7040 c2        1 JIN     -0.053000
     26 C17         2.8550   -2.5850   -2.0080 c2        1 JIN     -0.084000
     27 CL4         2.1760   -3.1260    0.5630 cl        1 JIN      0.005000
     28 CL5         1.0600    0.7040   -2.6560 cl        1 JIN     -0.103000
     29 H10        -0.2650   -1.2980    0.4210 ha        1 JIN      0.166000
     30 H131        2.3750    2.3960    4.1420 h1        1 JIN      0.102000
     31 H132        1.7700    3.6240    2.9300 h1        1 JIN      0.102000
     32 H133        3.3540    2.7560    2.6410 h1        1 JIN      0.102000
     33 H15         2.9250    1.2060   -1.3350 h1        1 JIN      0.167000
     34 H16         4.4100    0.2960   -3.0070 ha        1 JIN      0.169000
     35 H31        -2.0660    0.9590    8.1630 ha        1 JIN      0.215000
     36 H341       -1.4150   -3.6100    7.4630 hc        1 JIN      0.095667
     37 H342       -1.0420   -3.1120    5.7580 hc        1 JIN      0.095667
     38 H343       -2.7640   -3.1790    6.3320 hc        1 JIN      0.095667
     39 H28        -1.1110    0.4600    6.2730 ha        1 JIN      0.154000
     40 H26        -2.6380   -1.6590    4.5090 hx        1 JIN      0.188000
     41 HN08       -3.1550    0.3840    3.4220 hn        1 JIN      0.268000
     42 H02        -2.0660    3.2930    5.0000 hn        1 JIN      0.191000
     43 H17         2.5350   -3.5800   -2.3280 ha        1 JIN      0.174000
     44 C34        -1.7160   -2.9250    6.6320 c3        1 JIN     -0.183000
@<TRIPOS>BOND
     1    1   23 1
     2    1   24 1
     3    1   29 1
     4    2   21 1
     5    2   22 1
     6    2   23 1
     7    3   21 1
     8    3   30 1
     9    3   31 1
    10    3   32 1
    11    4    5 1
    12    4    7 1
    13    4   34 1
    14    5   26 1
    15    6    7 1
    16    6   23 1
    17    6   25 1
    18    7   28 1
    19    7   33 1
    20    8   13 1
    21    8   15 1
    22    8   40 1
    23    9   10 1
    24    9   11 1
    25    9   12 1
    26   10   14 1
    27   10   35 1
    28   12   13 1
    29   12   44 1
    30   13   39 1
    31   15   16 1
    32   15   18 1
    33   15   41 1
    34   16   17 1
    35   16   19 1
    36   17   42 1
    37   18   24 1
    38   19   20 1
    39   20   21 1
    40   20   24 1
    41   25   26 1
    42   25   27 1
    43   26   43 1
    44   36   44 1
    45   37   44 1
    46   38   44 1
@<TRIPOS>SUBSTRUCTURE
     1 JIN         1 TEMP              0 ****  ****    0 ROOT
