@<TRIPOS>MOLECULE
JJ1
   89    89     1     0     0
SMALL
bcc


@<TRIPOS>ATOM
      1 O4           0.0000     0.0000     0.0000 o          1 JJ1      -0.683100
      2 C6           1.2130     0.0000     0.0000 c          1 JJ1       0.583100
      3 N1           1.8860     0.0000     1.1680 ns         1 JJ1      -0.157900
      4 C1           1.1530    -0.0000     2.4360 c3         1 JJ1      -0.055300
      5 C2           0.7890    -1.4370     2.8150 c3         1 JJ1      -0.035400
      6 C3          -0.1880    -2.0040     1.7830 c3         1 JJ1      -0.036400
      7 C4          -0.5520    -3.4410     2.1620 c3         1 JJ1      -0.035400
      8 C5          -1.5280    -4.0090     1.1300 c3         1 JJ1      -0.053200
      9 N           -1.8780    -5.3880     1.4930 nz         1 JJ1       0.085400
     10 C            2.0170     0.6010     3.5150 c          1 JJ1       0.559100
     11 N3           1.5470     0.7050     4.7740 ns         1 JJ1      -0.180900
     12 C19          2.3870     1.2880     5.8230 c3         1 JJ1       0.037000
     13 C20          1.6210     1.2890     7.1480 c3         1 JJ1      -0.038400
     14 C21          2.4980     1.8990     8.2440 c3         1 JJ1      -0.044700
     15 C26          1.7820     1.7860     9.5910 c3         1 JJ1      -0.026400
     16 C25          2.6580     2.3950    10.6870 c3         1 JJ1      -0.021900
     17 C24          2.9200     3.8690    10.3700 c3         1 JJ1      -0.025400
     18 C23          3.6350     3.9830     9.0220 c3         1 JJ1      -0.021900
     19 C22          2.7580     3.3730     7.9270 c3         1 JJ1      -0.026400
     20 O            3.1350     0.9910     3.2510 o          1 JJ1      -0.634100
     21 C7           1.9670    -0.0070    -1.3040 c3         1 JJ1      -0.054300
     22 C8           2.8470     1.2420    -1.3920 c3         1 JJ1       0.207400
     23 O1           2.0400     2.4080    -1.2060 oh         1 JJ1      -0.596800
     24 N2           1.0150    -0.0120    -2.4190 ns         1 JJ1      -0.182900
     25 C9           1.3830    -0.5110    -3.6160 c          1 JJ1       0.569100
     26 O3           2.5000    -0.9560    -3.7700 o          1 JJ1      -0.655100
     27 C10          0.4040    -0.5160    -4.7620 c3         1 JJ1      -0.093400
     28 C11          1.0670    -1.1330    -5.9950 c3         1 JJ1      -0.016400
     29 C12          0.0720    -1.1390    -7.1590 c3         1 JJ1      -0.031400
     30 C13          0.7350    -1.7540    -8.3930 c3         1 JJ1      -0.027400
     31 C14         -0.2580    -1.7600    -9.5560 c3         1 JJ1      -0.029400
     32 C15          0.4050    -2.3750   -10.7900 c3         1 JJ1      -0.027400
     33 C16         -0.5890    -2.3810   -11.9530 c3         1 JJ1      -0.025400
     34 C17          0.0740    -2.9960   -13.1870 c3         1 JJ1      -0.039400
     35 C18         -0.9200    -3.0030   -14.3500 c3         1 JJ1       0.226400
     36 O2          -0.3010    -3.5770   -15.5030 oh         1 JJ1      -0.593800
     37 H1           2.8870    -0.0250     1.1680 hn         1 JJ1       0.208500
     38 H7           2.5890    -0.8920    -1.3570 h1         1 JJ1       0.066700
     39 HA           0.2480     0.5860     2.3300 h1         1 JJ1       0.073700
     40 H21C         1.6860    -2.0440     2.8350 hc         1 JJ1       0.024200
     41 H22C         0.3260    -1.4460     3.7940 hc         1 JJ1       0.024200
     42 H31C        -1.0850    -1.3970     1.7630 hc         1 JJ1       0.050700
     43 H32C         0.2750    -1.9950     0.8040 hc         1 JJ1       0.050700
     44 H41C        -1.0160    -3.4500     3.1410 hc         1 JJ1       0.029700
     45 H42C         0.3450    -4.0480     2.1820 hc         1 JJ1       0.029700
     46 H51C        -2.4250    -3.4020     1.1100 hx         1 JJ1       0.089700
     47 H52C        -1.0640    -4.0000     0.1510 hx         1 JJ1       0.089700
     48 HN1         -1.0480    -5.9470     1.5190 hn         1 JJ1       0.222800
     49 HN2         -2.3140    -5.3960     2.3940 hn         1 JJ1       0.222800
     50 H3           0.6090     0.4250     4.9820 hn         1 JJ1       0.171500
     51 H191         3.2910     0.7020     5.9290 h1         1 JJ1       0.037700
     52 H192         2.6450     2.3050     5.5550 h1         1 JJ1       0.037700
     53 H201         1.3620     0.2720     7.4160 hc         1 JJ1       0.016700
     54 H202         0.7160     1.8760     7.0410 hc         1 JJ1       0.016700
     55 H21          3.4420     1.3700     8.2940 hc         1 JJ1       0.034700
     56 H261         1.6000     0.7420     9.8160 hc         1 JJ1       0.016450
     57 H262         0.8410     2.3200     9.5450 hc         1 JJ1       0.016450
     58 H221         3.2670     3.4510     6.9740 hc         1 JJ1       0.016450
     59 H222         1.8150     3.9040     7.8840 hc         1 JJ1       0.016450
     60 H251         3.6010     1.8640    10.7310 hc         1 JJ1       0.016450
     61 H252         2.1490     2.3170    11.6400 hc         1 JJ1       0.016450
     62 H241         3.5420     4.2990    11.1450 hc         1 JJ1       0.016700
     63 H242         1.9760     4.4000    10.3220 hc         1 JJ1       0.016700
     64 H231         3.8170     5.0270     8.7980 hc         1 JJ1       0.016450
     65 H232         4.5770     3.4480     9.0690 hc         1 JJ1       0.016450
     66 H81C         3.6080     1.2030    -0.6210 h1         1 JJ1       0.009700
     67 H82C         3.3210     1.2830    -2.3650 h1         1 JJ1       0.009700
     68 H2           0.0920     0.3520    -2.2900 hn         1 JJ1       0.203500
     69 HB           2.5460     3.1760    -1.4100 ho         1 JJ1       0.407000
     70 H101        -0.4670    -1.1000    -4.4900 hc         1 JJ1       0.028200
     71 H102         0.1020     0.5000    -4.9840 hc         1 JJ1       0.028200
     72 H111         1.3690    -2.1490    -5.7730 hc         1 JJ1       0.029700
     73 H112         1.9380    -0.5480    -6.2670 hc         1 JJ1       0.029700
     74 H121        -0.2300    -0.1220    -7.3800 hc         1 JJ1       0.011200
     75 H122        -0.7980    -1.7230    -6.8870 hc         1 JJ1       0.011200
     76 H131         1.0380    -2.7700    -8.1710 hc         1 JJ1       0.017700
     77 H132         1.6060    -1.1680    -8.6640 hc         1 JJ1       0.017700
     78 H141        -1.1290    -2.3450    -9.2850 hc         1 JJ1       0.013200
     79 H142        -0.5610    -0.7440    -9.7780 hc         1 JJ1       0.013200
     80 H151         1.2750    -1.7900   -11.0620 hc         1 JJ1       0.017200
     81 H152         0.7070    -3.3910   -10.5690 hc         1 JJ1       0.017200
     82 H161        -0.8920    -1.3650   -12.1740 hc         1 JJ1       0.013200
     83 H162        -1.4590    -2.9660   -11.6810 hc         1 JJ1       0.013200
     84 H171         0.3770    -4.0130   -12.9660 hc         1 JJ1       0.024700
     85 H172         0.9440    -2.4110   -13.4590 hc         1 JJ1       0.024700
     86 H181        -1.7900    -3.5880   -14.0780 h1         1 JJ1      -0.017300
     87 H182        -1.2230    -1.9860   -14.5720 h1         1 JJ1      -0.017300
     88 HC          -0.9100    -3.5720   -16.2230 ho         1 JJ1       0.391000
     89 HN3         -2.5130    -5.7610     0.8150 hn         1 JJ1       0.222800
@<TRIPOS>BOND
     1     1     2 2   
     2     2     3 1   
     3     2    21 1   
     4     3     4 1   
     5     3    37 1   
     6     4     5 1   
     7     4    10 1   
     8     4    39 1   
     9     5     6 1   
    10     5    40 1   
    11     5    41 1   
    12     6     7 1   
    13     6    42 1   
    14     6    43 1   
    15     7     8 1   
    16     7    44 1   
    17     7    45 1   
    18     8     9 1   
    19     8    46 1   
    20     8    47 1   
    21     9    48 1   
    22     9    49 1   
    23     9    89 1   
    24    10    11 1   
    25    10    20 2   
    26    11    12 1   
    27    11    50 1   
    28    12    13 1   
    29    12    51 1   
    30    12    52 1   
    31    13    14 1   
    32    13    53 1   
    33    13    54 1   
    34    14    15 1   
    35    14    19 1   
    36    14    55 1   
    37    15    16 1   
    38    15    56 1   
    39    15    57 1   
    40    16    17 1   
    41    16    60 1   
    42    16    61 1   
    43    17    18 1   
    44    17    62 1   
    45    17    63 1   
    46    18    19 1   
    47    18    64 1   
    48    18    65 1   
    49    19    58 1   
    50    19    59 1   
    51    21    22 1   
    52    21    24 1   
    53    21    38 1   
    54    22    23 1   
    55    22    66 1   
    56    22    67 1   
    57    23    69 1   
    58    24    25 1   
    59    24    68 1   
    60    25    26 2   
    61    25    27 1   
    62    27    28 1   
    63    27    70 1   
    64    27    71 1   
    65    28    29 1   
    66    28    72 1   
    67    28    73 1   
    68    29    30 1   
    69    29    74 1   
    70    29    75 1   
    71    30    31 1   
    72    30    76 1   
    73    30    77 1   
    74    31    32 1   
    75    31    78 1   
    76    31    79 1   
    77    32    33 1   
    78    32    80 1   
    79    32    81 1   
    80    33    34 1   
    81    33    82 1   
    82    33    83 1   
    83    34    35 1   
    84    34    84 1   
    85    34    85 1   
    86    35    36 1   
    87    35    86 1   
    88    35    87 1   
    89    36    88 1   
@<TRIPOS>SUBSTRUCTURE
     1 JJ1         1 TEMP              0 ****  ****    0 ROOT
