@<TRIPOS>MOLECULE
molecule
   46    49     1     0     0
SMALL
bcc


@<TRIPOS>ATOM
      1 C1           0.0000     0.0000     0.0000 ca         1 JJ3       0.072100
      2 C2           1.3870     0.0000     0.0000 ca         1 JJ3      -0.104000
      3 C3           2.0720     0.0000     1.1980 ca         1 JJ3      -0.098300
      4 C4           1.3770    -0.0020     2.4020 ca         1 JJ3       0.135100
      5 O5           2.0890    -0.0000     3.5610 os         1 JJ3      -0.328900
      6 C6           1.4270    -0.4890     4.7270 c3         1 JJ3       0.205400
      7 C8           0.1000     0.2400     4.9000 c3         1 JJ3      -0.099700
      8 C10          0.3250     1.7680     4.8790 c3         1 JJ3      -0.079400
      9 C11         -1.0320     2.3430     4.4190 c3         1 JJ3      -0.083400
     10 C12         -1.7510     1.2150     3.6580 c3         1 JJ3      -0.077400
     11 C13         -0.8070    -0.0070     3.6800 c3         1 JJ3      -0.018400
     12 C15         -0.0050    -0.0030     2.4050 ca         1 JJ3      -0.133300
     13 C16         -0.6910    -0.0010     1.1990 ca         1 JJ3      -0.123000
     14 C17          2.2940    -0.2460     5.9360 ca         1 JJ3      -0.095300
     15 C18          2.3850    -1.2080     6.9250 ca         1 JJ3      -0.097500
     16 C19          3.1790    -0.9880     8.0340 ca         1 JJ3      -0.155500
     17 C20          3.8860     0.1990     8.1540 ca         1 JJ3       0.110100
     18 O21          4.6690     0.4180     9.2430 oh         1 JJ3      -0.523100
     19 C22          3.7950     1.1630     7.1600 ca         1 JJ3      -0.155500
     20 C23          3.0030     0.9360     6.0510 ca         1 JJ3      -0.097500
     21 C24          3.5790     0.0000     1.2010 c3         1 JJ3       0.193700
     22 O25          4.0580     0.0020    -0.1460 os         1 JJ3      -0.436600
     23 C26          5.4830     0.0030    -0.2560 c3         1 JJ3       0.131700
     24 O27         -0.6800     0.0060    -1.1780 oh         1 JJ3      -0.519100
     25 H2           1.9310     0.0010    -0.9370 ha         1 JJ3       0.166000
     26 H16         -1.7740    -0.0010     1.1960 ha         1 JJ3       0.142000
     27 H27         -0.7900    -0.8790    -1.4830 ho         1 JJ3       0.415000
     28 H241         3.9400    -0.8850     1.7110 h1         1 JJ3       0.040700
     29 H242         3.9390     0.8840     1.7130 h1         1 JJ3       0.040700
     30 H6           1.2420    -1.5510     4.6170 h1         1 JJ3       0.053700
     31 H8          -0.3940    -0.0650     5.8160 hc         1 JJ3       0.072700
     32 H101         1.1030     2.0250     4.1700 hc         1 JJ3       0.055700
     33 H102         0.5710     2.1280     5.8700 hc         1 JJ3       0.055700
     34 H13         -1.3660    -0.9290     3.7880 hc         1 JJ3       0.064700
     35 H111        -0.8720     3.1890     3.7620 hc         1 JJ3       0.045200
     36 H112        -1.6190     2.6400     5.2810 hc         1 JJ3       0.045200
     37 H121        -2.6720     0.9660     4.1720 hc         1 JJ3       0.051200
     38 H122        -1.9150     1.5230     2.6320 hc         1 JJ3       0.051200
     39 H18          1.8330    -2.1350     6.8310 ha         1 JJ3       0.140500
     40 H23          2.9310     1.6880     5.2740 ha         1 JJ3       0.140500
     41 H19          3.2490    -1.7420     8.8080 ha         1 JJ3       0.142500
     42 H21          5.5400     0.1000     9.0730 ho         1 JJ3       0.420000
     43 H22          4.3480     2.0900     7.2500 ha         1 JJ3       0.142500
     44 H261         5.8830    -0.8820     0.2240 h1         1 JJ3       0.030700
     45 H262         5.8820     0.8870     0.2260 h1         1 JJ3       0.030700
     46 H263         5.7640     0.0040    -1.3020 h1         1 JJ3       0.030700
@<TRIPOS>BOND
     1     1     2 ar
     2     1    13 ar
     3     1    24 1
     4     2     3 ar
     5     2    25 1
     6     3     4 ar
     7     3    21 1
     8     4     5 1
     9     4    12 ar
    10     5     6 1
    11     6     7 1
    12     6    14 1
    13     6    30 1
    14     7     8 1
    15     7    11 1
    16     7    31 1
    17     8     9 1
    18     8    32 1
    19     8    33 1
    20     9    10 1
    21     9    35 1
    22     9    36 1
    23    10    11 1
    24    10    37 1
    25    10    38 1
    26    11    12 1
    27    11    34 1
    28    12    13 ar
    29    13    26 1
    30    14    15 ar
    31    14    20 ar
    32    15    16 ar
    33    15    39 1
    34    16    17 ar
    35    16    41 1
    36    17    18 1
    37    17    19 ar
    38    18    42 1
    39    19    20 ar
    40    19    43 1
    41    20    40 1
    42    21    22 1
    43    21    28 1
    44    21    29 1
    45    22    23 1
    46    23    44 1
    47    23    45 1
    48    23    46 1
    49    24    27 1
@<TRIPOS>SUBSTRUCTURE
     1 JJ3         1 TEMP              0 ****  ****    0 ROOT
