@<TRIPOS>MOLECULE
JJ3
   46    49     1     0     0
SMALL
bcc


@<TRIPOS>ATOM
      1 C1         -0.0140   -0.1720   -0.0500 ca        1 JJ3      0.099100
      2 C2          1.3850   -0.0820   -0.0500 ca        1 JJ3     -0.166000
      3 C3          2.0670    0.0290    1.1590 ca        1 JJ3     -0.063300
      4 C4          1.3290    0.0640    2.3600 ca        1 JJ3      0.085100
      5 O5          2.0660    0.2020    3.5270 os        1 JJ3     -0.329900
      6 C6          1.4140   -0.3820    4.6740 c3        1 JJ3      0.200400
      7 C8          0.0220    0.2080    4.8820 c3        1 JJ3     -0.084700
      8 C10         0.0250    1.6940    5.2320 c3        1 JJ3     -0.073400
      9 C11        -1.2230    2.2990    4.6060 c3        1 JJ3     -0.077400
     10 C12        -1.8070    1.2660    3.6520 c3        1 JJ3     -0.072400
     11 C13        -0.8570    0.0600    3.6310 c3        1 JJ3     -0.014400
     12 C15        -0.0730   -0.0020    2.3620 ca        1 JJ3     -0.093300
     13 C16        -0.7460   -0.1320    1.1440 ca        1 JJ3     -0.134000
     14 C17         2.3110   -0.1710    5.8540 ca        1 JJ3     -0.121300
     15 C18         2.2110   -1.0520    6.9400 ca        1 JJ3     -0.077500
     16 C19         3.0200   -0.8940    8.0590 ca        1 JJ3     -0.187500
     17 C20         3.9500    0.1600    8.0850 ca        1 JJ3      0.127100
     18 O21         4.7240    0.2660    9.2180 oh        1 JJ3     -0.497100
     19 C22         4.0640    1.0440    7.0040 ca        1 JJ3     -0.187500
     20 C23         3.2400    0.8730    5.8930 ca        1 JJ3     -0.077500
     21 C24         3.5530    0.1320    1.2270 c3        1 JJ3      0.178700
     22 O25         4.1030   -0.1570   -0.0600 os        1 JJ3     -0.427600
     23 C26         5.5190   -0.1160   -0.0560 c3        1 JJ3      0.118700
     24 O27        -0.7450   -0.2980   -1.2120 oh        1 JJ3     -0.501100
     25 H2          1.9510   -0.1100   -0.9930 ha        1 JJ3      0.157000
     26 H16        -1.8430   -0.2000    1.1140 ha        1 JJ3      0.151000
     27 H27        -0.1210   -0.3270   -1.9510 ho        1 JJ3      0.419000
     28 H241        3.9540   -0.5980    1.9830 h1        1 JJ3      0.047200
     29 H242        3.8500    1.1720    1.5350 h1        1 JJ3      0.047200
     30 H6          1.3080   -1.4890    4.4750 h1        1 JJ3      0.055700
     31 H8         -0.4570   -0.3630    5.7250 hc        1 JJ3      0.059700
     32 H101        0.9480    2.1770    4.8200 hc        1 JJ3      0.051700
     33 H102        0.0330    1.8390    6.3400 hc        1 JJ3      0.051700
     34 H13        -1.4550   -0.8910    3.7070 hc        1 JJ3      0.060700
     35 H111       -1.9700    2.5650    5.3960 hc        1 JJ3      0.042700
     36 H112       -0.9680    3.2410    4.0590 hc        1 JJ3      0.042700
     37 H121       -1.9330    1.6930    2.6270 hc        1 JJ3      0.048200
     38 H122       -2.8170    0.9380    4.0060 hc        1 JJ3      0.048200
     39 H18         1.4840   -1.8780    6.9090 ha        1 JJ3      0.142500
     40 H23         3.3230    1.5590    5.0350 ha        1 JJ3      0.142500
     41 H19         2.9490   -1.5770    8.9170 ha        1 JJ3      0.143500
     42 H21         5.3180    1.0220    9.1030 ho        1 JJ3      0.420000
     43 H22         4.7950    1.8640    7.0310 ha        1 JJ3      0.143500
     44 H261        5.8840    0.9020    0.2270 h1        1 JJ3      0.034033
     45 H262        5.9340   -0.8790    0.6490 h1        1 JJ3      0.034033
     46 H263        5.8080   -0.3580   -1.1090 h1        1 JJ3      0.034033
@<TRIPOS>BOND
     1    1    2 ar  
     2    1   13 ar  
     3    1   24 1   
     4    2    3 ar  
     5    2   25 1   
     6    3    4 ar  
     7    3   21 1   
     8    4    5 1   
     9    4   12 ar  
    10    5    6 1   
    11    6    7 1   
    12    6   14 1   
    13    6   30 1   
    14    7    8 1   
    15    7   11 1   
    16    7   31 1   
    17    8    9 1   
    18    8   32 1   
    19    8   33 1   
    20    9   10 1   
    21    9   35 1   
    22    9   36 1   
    23   10   11 1   
    24   10   37 1   
    25   10   38 1   
    26   11   12 1   
    27   11   34 1   
    28   12   13 ar  
    29   13   26 1   
    30   14   15 ar  
    31   14   20 ar  
    32   15   16 ar  
    33   15   39 1   
    34   16   17 ar  
    35   16   41 1   
    36   17   18 1   
    37   17   19 ar  
    38   18   42 1   
    39   19   20 ar  
    40   19   43 1   
    41   20   40 1   
    42   21   22 1   
    43   21   28 1   
    44   21   29 1   
    45   22   23 1   
    46   23   44 1   
    47   23   45 1   
    48   23   46 1   
    49   24   27 1   
@<TRIPOS>SUBSTRUCTURE
     1 JJ3         1 TEMP              0 ****  ****    0 ROOT
