@<TRIPOS>MOLECULE
molecule
   34    35     1     0     0
SMALL
bcc


@<TRIPOS>ATOM
      1 C10          0.0000     0.0000     0.0000 c3         1 JJ4      -0.151400
      2 C13         -2.5830    -0.1260     2.8880 c3         1 JJ4      -0.080400
      3 C15         -3.8280     1.6710     1.8060 c3         1 JJ4      -0.083400
      4 C02          5.7620    -0.0040    -2.2930 cc         1 JJ4      -0.180700
      5 C03          5.5420    -0.0080    -0.9770 cd         1 JJ4       0.401200
      6 N04          4.2680    -0.0060    -0.6340 nd         1 JJ4      -0.732000
      7 C05          3.4000    -0.0000    -1.5970 cc         1 JJ4       0.589300
      8 S06          4.2000     0.0100    -3.1080 ss         1 JJ4      -0.214300
      9 N07          2.1810    -0.0010    -1.1670 ns         1 JJ4      -0.498400
     10 C08          1.5060     0.0000     0.0000 c          1 JJ4       0.647100
     11 O09          2.1130     0.0000     1.0510 o          1 JJ4      -0.524100
     12 C11         -0.5100    -0.0000     1.4430 c3         1 JJ4      -0.059400
     13 C12         -2.0410     0.0010     1.4430 c3         1 JJ4      -0.079700
     14 C14         -4.0010     0.4870     2.7810 c3         1 JJ4      -0.083400
     15 C16         -2.5800     1.3600     0.9540 c3         1 JJ4      -0.080400
     16 H102        -0.3610    -0.8850    -0.5110 hc         1 JJ4       0.063200
     17 H101        -0.3610     0.8850    -0.5110 hc         1 JJ4       0.063200
     18 H131        -2.6380    -1.1670     3.1850 hc         1 JJ4       0.045200
     19 H132        -1.9710     0.4440     3.5770 hc         1 JJ4       0.045200
     20 H152        -3.6780     2.5880     2.3620 hc         1 JJ4       0.043200
     21 H151        -4.7000     1.7550     1.1680 hc         1 JJ4       0.043200
     22 H011         7.6630     0.8780    -2.6680 hc         1 JJ4       0.046033
     23 H012         7.6600    -0.8910    -2.6710 hc         1 JJ4       0.046033
     24 H013         6.9780    -0.0030    -4.0410 hc         1 JJ4       0.046033
     25 H071         1.4200     0.0030    -1.8180 hn         1 JJ4       0.287500
     26 H111        -0.1490     0.8840     1.9540 hc         1 JJ4       0.063700
     27 H112        -0.1490    -0.8850     1.9540 hc         1 JJ4       0.063700
     28 H121        -2.4250    -0.8020     0.8250 hc         1 JJ4       0.051700
     29 H142        -4.6960    -0.2380     2.3750 hc         1 JJ4       0.043200
     30 H141        -4.3330     0.8400     3.7490 hc         1 JJ4       0.043200
     31 H162        -1.8310     2.1290     1.1000 hc         1 JJ4       0.045200
     32 H161        -2.8530     1.2940    -0.0930 hc         1 JJ4       0.045200
     33 H031         6.3450    -0.0120    -0.2490 h4         1 JJ4       0.046100
     34 C01          7.1110    -0.0050    -2.9650 c3         1 JJ4      -0.000800
@<TRIPOS>BOND
     1     3    15 1
     2     3    14 1
     3    15    13 1
     4    12     1 1
     5    12    13 1
     6    14     2 1
     7     1    10 1
     8    13     2 1
     9     8     7 1
    10     8     4 1
    11    10     9 1
    12    10    11 2
    13     9     7 1
    14     7     6 2
    15    34     4 1
    16     4     5 2
    17     6     5 1
    18     1    16 1
    19     1    17 1
    20     2    18 1
    21     2    19 1
    22     3    20 1
    23     3    21 1
    24    34    22 1
    25    34    23 1
    26    34    24 1
    27     5    33 1
    28     9    25 1
    29    12    26 1
    30    12    27 1
    31    13    28 1
    32    14    29 1
    33    14    30 1
    34    15    31 1
    35    15    32 1
@<TRIPOS>SUBSTRUCTURE
     1 JJ4         1 TEMP              0 ****  ****    0 ROOT
