@<TRIPOS>MOLECULE
molecule
   34    34     1     0     0
SMALL
bcc


@<TRIPOS>ATOM
      1 C01          0.0000     0.0000     0.0000 c3         1 JJ7      -0.170100
      2 C02          1.5070     0.0000     0.0000 c          1 JJ7       0.663100
      3 O03          2.1140     0.0000     1.0500 o          1 JJ7      -0.613100
      4 N04          2.1820    -0.0030    -1.1670 n          1 JJ7      -0.494800
      5 C05          3.6460    -0.1140    -1.1860 c3         1 JJ7       0.104000
      6 C06          4.0410    -1.2770    -2.1010 c3         1 JJ7      -0.095900
      7 C07          3.4080    -1.0730    -3.4800 c3         1 JJ7       0.165500
      8 C08          1.8840    -1.0580    -3.3470 c3         1 JJ7      -0.095900
      9 C09          1.4640     0.1010    -2.4450 c3         1 JJ7       0.104000
     10 N10          3.8120    -2.1690    -4.3700 n7         1 JJ7      -0.804200
     11 C11          3.7540    -1.7520    -5.7780 c3         1 JJ7       0.157800
     12 C12          4.1800    -2.9180    -6.6720 c3         1 JJ7       0.139400
     13 O13          3.2330    -3.9810    -6.5540 os         1 JJ7      -0.411600
     14 C14          3.5380    -5.1240    -7.3540 c3         1 JJ7       0.127700
     15 H011        -0.3610    -0.9030    -0.4770 hc         1 JJ7       0.060367
     16 H012        -0.3610     0.8650    -0.5430 hc         1 JJ7       0.060367
     17 H013        -0.3610     0.0380     1.0210 hc         1 JJ7       0.060367
     18 H051         4.0740     0.8070    -1.5650 h1         1 JJ7       0.055200
     19 H052         4.0080    -0.3030    -0.1830 h1         1 JJ7       0.055200
     20 H061         5.1200    -1.3070    -2.2010 hc         1 JJ7       0.058450
     21 H062         3.6860    -2.2070    -1.6760 hc         1 JJ7       0.058450
     22 H071         3.7410    -0.1270    -3.8910 h1         1 JJ7       0.022700
     23 H081         1.5520    -1.9920    -2.9100 hc         1 JJ7       0.058450
     24 H082         1.4380    -0.9320    -4.3260 hc         1 JJ7       0.058450
     25 H091         0.3970     0.0520    -2.2660 h1         1 JJ7       0.055200
     26 H092         1.7140     1.0400    -2.9240 h1         1 JJ7       0.055200
     27 H101         4.7450    -2.4560    -4.1460 hn         1 JJ7       0.353800
     28 H111         4.4230    -0.9140    -5.9340 h1         1 JJ7       0.041200
     29 H112         2.7420    -1.4580    -6.0260 h1         1 JJ7       0.041200
     30 H121         4.2240    -2.5860    -7.7020 h1         1 JJ7       0.022700
     31 H122         5.1580    -3.2700    -6.3650 h1         1 JJ7       0.022700
     32 H143         2.7770    -5.8810    -7.2080 h1         1 JJ7       0.028367
     33 H141         4.5030    -5.5220    -7.0610 h1         1 JJ7       0.028367
     34 H142         3.5680    -4.8380    -8.3980 h1         1 JJ7       0.028367
@<TRIPOS>BOND
     1     3     2 2
     2     5     6 1
     3     5     4 1
     4     2     4 1
     5     2     1 1
     6     6     7 1
     7     4     9 1
     8     7     8 1
     9     7    10 1
    10     9     8 1
    11    11    10 1
    12    11    12 1
    13    13    14 1
    14    13    12 1
    15     1    15 1
    16     1    16 1
    17     1    17 1
    18     5    18 1
    19     5    19 1
    20     6    20 1
    21     6    21 1
    22     7    22 1
    23     8    23 1
    24     8    24 1
    25     9    25 1
    26     9    26 1
    27    10    27 1
    28    11    28 1
    29    11    29 1
    30    12    30 1
    31    12    31 1
    32    14    32 1
    33    14    33 1
    34    14    34 1
@<TRIPOS>SUBSTRUCTURE
     1 JJ7         1 TEMP              0 ****  ****    0 ROOT
