@<TRIPOS>MOLECULE
molecule
   64    67     1     0     0
SMALL
bcc


@<TRIPOS>ATOM
      1 O1           0.0000     0.0000     0.0000 o          1 JJA      -0.617800
      2 O2           2.1980     0.9980    -0.6460 o          1 JJA      -0.617800
      3 S3           1.4210     0.0000     0.0000 sy         1 JJA       1.416900
      4 C4           1.9170     0.0000     1.6910 ca         1 JJA      -0.315500
      5 C51          3.1660     0.4780     2.0450 ca         1 JJA      -0.017500
      6 C52          3.5550     0.4770     3.3720 ca         1 JJA      -0.155500
      7 C53          2.6980    -0.0020     4.3430 ca         1 JJA      -0.070000
      8 C54          1.4490    -0.4790     3.9900 ca         1 JJA      -0.155500
      9 C55          1.0570    -0.4730     2.6650 ca         1 JJA      -0.017500
     10 N4           1.8890    -1.4500    -0.6480 ns         1 JJA      -0.655300
     11 C5           1.3360    -2.5970    -0.2030 c          1 JJA       0.705700
     12 O91          0.4960    -2.5660     0.6750 o          1 JJA      -0.572100
     13 C6           1.7540    -3.8900    -0.7810 ca         1 JJA      -0.205600
     14 C7           1.1790    -5.0780    -0.3250 ca         1 JJA      -0.009000
     15 C8           1.5700    -6.2820    -0.8680 ca         1 JJA      -0.163300
     16 C9           2.5350    -6.3150    -1.8660 ca         1 JJA       0.189100
     17 C10          3.1100    -5.1350    -2.3230 ca         1 JJA      -0.236000
     18 C11          2.7200    -3.9270    -1.7890 ca         1 JJA      -0.049000
     19 O3           2.9180    -7.5040    -2.3980 os         1 JJA      -0.317900
     20 C12          3.9150    -7.4660    -3.4220 c3         1 JJA       0.133400
     21 C13          4.2150    -8.8900    -3.8950 c3         1 JJA      -0.084400
     22 C14          5.2820    -8.8490    -4.9900 c3         1 JJA      -0.091100
     23 C15          0.9520    -7.5660    -0.3760 c3         1 JJA       0.173300
     24 N99          1.8600    -8.2140     0.5730 ns         1 JJA      -0.577900
     25 C16          1.5130    -9.3830     1.1450 c          1 JJA       0.671700
     26 O99          0.4470    -9.9000     0.8750 o          1 JJA      -0.607100
     27 C17          2.4310   -10.0380     2.1030 ca         1 JJA      -0.128600
     28 C18          3.6530    -9.4420     2.4180 ca         1 JJA      -0.103500
     29 C19          4.5040   -10.0490     3.3140 ca         1 JJA      -0.095000
     30 C20          4.1450   -11.2600     3.9060 cp         1 JJA      -0.125500
     31 C21          2.9250   -11.8570     3.5930 ca         1 JJA      -0.095000
     32 C22          2.0720   -11.2500     2.6970 ca         1 JJA      -0.103500
     33 C23          5.0640   -11.9140     4.8710 cp         1 JJA       0.739500
     34 N24          6.2180   -11.3310     5.1630 nb         1 JJA      -0.732000
     35 C25          7.0570   -11.8850     6.0220 ca         1 JJA       0.462700
     36 C26          6.7150   -13.0900     6.6200 ca         1 JJA      -0.388600
     37 C27          5.4990   -13.6710     6.2920 ca         1 JJA       0.462700
     38 N28          4.7070   -13.0660     5.4250 nb         1 JJA      -0.732000
     39 H1           3.8380     0.8530     1.2840 ha         1 JJA       0.158000
     40 H2           4.5340     0.8510     3.6490 ha         1 JJA       0.137500
     41 H3           3.0040    -0.0050     5.3830 ha         1 JJA       0.133000
     42 H4           0.7760    -0.8520     4.7530 ha         1 JJA       0.137500
     43 H5           0.0780    -0.8470     2.3880 ha         1 JJA       0.158000
     44 H6           2.5610    -1.4740    -1.3890 hn         1 JJA       0.345500
     45 H7           0.4260    -5.0530     0.4530 ha         1 JJA       0.168000
     46 H8           3.8600    -5.1650    -3.1030 ha         1 JJA       0.145000
     47 H9           3.1680    -3.0070    -2.1450 ha         1 JJA       0.128000
     48 H10          4.8190    -7.0180    -3.0290 h1         1 JJA       0.038200
     49 H11          3.5530    -6.8770    -4.2560 h1         1 JJA       0.038200
     50 H12          4.5770    -9.4790    -3.0600 hc         1 JJA       0.059200
     51 H13          3.3110    -9.3380    -4.2880 hc         1 JJA       0.059200
     52 H14          4.9200    -8.2600    -5.8250 hc         1 JJA       0.039367
     53 H15          6.1860    -8.4000    -4.5970 hc         1 JJA       0.039367
     54 H16          5.4950    -9.8570    -5.3250 hc         1 JJA       0.039367
     55 H17          0.0110    -7.3480     0.1160 h1         1 JJA       0.066700
     56 H18          0.7750    -8.2260    -1.2160 h1         1 JJA       0.066700
     57 H19          2.7190    -7.7680     0.8280 hn         1 JJA       0.317500
     58 H20          3.9320    -8.5020     1.9580 ha         1 JJA       0.145000
     59 H21          5.4530    -9.5870     3.5590 ha         1 JJA       0.158000
     60 H22          2.6470   -12.7970     4.0530 ha         1 JJA       0.158000
     61 H23          1.1230   -11.7130     2.4520 ha         1 JJA       0.145000
     62 H24          7.9990   -11.4040     6.2560 h4         1 JJA       0.031600
     63 H25          7.3830   -13.5650     7.3280 ha         1 JJA       0.147000
     64 H26          5.2030   -14.6120     6.7410 h4         1 JJA       0.031600
@<TRIPOS>BOND
     1    35    36 ar
     2    35    34 ar
     3    36    37 ar
     4    34    33 ar
     5    37    38 ar
     6    33    38 ar
     7    33    30 1
     8    29    30 ar
     9    29    28 ar
    10    30    31 ar
    11    28    27 ar
    12    31    32 ar
    13    27    32 ar
    14    27    25 1
    15    26    25 2
    16    25    24 1
    17    24    23 1
    18    23    15 1
    19     8     7 ar
    20     8     9 ar
    21     7     6 ar
    22     9     4 ar
    23     6     5 ar
    24    15    14 ar
    25    15    16 ar
    26    19    16 1
    27    19    20 1
    28    21    20 1
    29    21    22 1
    30    14    13 ar
    31     4     5 ar
    32     4     3 1
    33    16    17 ar
    34    10     3 1
    35    10    11 1
    36    13    11 1
    37    13    18 ar
    38     3     1 2
    39     3     2 2
    40    17    18 ar
    41    11    12 2
    42     5    39 1
    43     6    40 1
    44     7    41 1
    45     8    42 1
    46     9    43 1
    47    10    44 1
    48    14    45 1
    49    17    46 1
    50    18    47 1
    51    20    48 1
    52    20    49 1
    53    21    50 1
    54    21    51 1
    55    22    52 1
    56    22    53 1
    57    22    54 1
    58    23    55 1
    59    23    56 1
    60    24    57 1
    61    28    58 1
    62    29    59 1
    63    31    60 1
    64    32    61 1
    65    35    62 1
    66    36    63 1
    67    37    64 1
@<TRIPOS>SUBSTRUCTURE
     1 JJA         1 TEMP              0 ****  ****    0 ROOT
