@<TRIPOS>MOLECULE
JJA
   64    67     1     0     0
SMALL
bcc


@<TRIPOS>ATOM
      1 O1           0.0000     0.0000     0.0000 o          1 JJA      -0.571300
      2 O2           2.1980     0.9980    -0.6460 o          1 JJA      -0.571300
      3 S3           1.4210     0.0000     0.0000 sy         1 JJA       1.044900
      4 C4           1.9170     0.0000     1.6910 ca         1 JJA      -0.163500
      5 C51          3.1660     0.4780     2.0450 ca         1 JJA       0.014000
      6 C52          3.5550     0.4770     3.3720 ca         1 JJA      -0.138000
      7 C53          2.6980    -0.0020     4.3430 ca         1 JJA      -0.043000
      8 C54          1.4490    -0.4790     3.9900 ca         1 JJA      -0.138000
      9 C55          1.0570    -0.4730     2.6650 ca         1 JJA       0.014000
     10 N4           1.8890    -1.4500    -0.6480 ns         1 JJA      -0.309300
     11 C5           1.3360    -2.5970    -0.2030 c          1 JJA       0.679700
     12 O91          0.4960    -2.5660     0.6750 o          1 JJA      -0.612100
     13 C6           1.7540    -3.8900    -0.7810 ca         1 JJA      -0.222600
     14 C7           1.1790    -5.0780    -0.3250 ca         1 JJA       0.029000
     15 C8           1.5700    -6.2820    -0.8680 ca         1 JJA      -0.182300
     16 C9           2.5350    -6.3150    -1.8660 ca         1 JJA       0.200100
     17 C10          3.1100    -5.1350    -2.3230 ca         1 JJA      -0.225000
     18 C11          2.7200    -3.9270    -1.7890 ca         1 JJA      -0.018000
     19 O3           2.9180    -7.5040    -2.3980 os         1 JJA      -0.298900
     20 C12          3.9150    -7.4660    -3.4220 c3         1 JJA       0.199400
     21 C13          4.2150    -8.8900    -3.8950 c3         1 JJA      -0.034400
     22 C14          5.2820    -8.8490    -4.9900 c3         1 JJA       0.012900
     23 C15          0.9520    -7.5660    -0.3760 c3         1 JJA       0.123300
     24 N99          1.8600    -8.2140     0.5730 ns         1 JJA      -0.194900
     25 C16          1.5130    -9.3830     1.1450 c          1 JJA       0.593700
     26 O99          0.4470    -9.9000     0.8750 o          1 JJA      -0.649100
     27 C17          2.4310   -10.0380     2.1030 ca         1 JJA      -0.138600
     28 C18          3.6530    -9.4420     2.4180 ca         1 JJA      -0.076000
     29 C19          4.5040   -10.0490     3.3140 ca         1 JJA      -0.073000
     30 C20          4.1450   -11.2600     3.9060 cp         1 JJA      -0.145500
     31 C21          2.9250   -11.8570     3.5930 ca         1 JJA      -0.073000
     32 C22          2.0720   -11.2500     2.6970 ca         1 JJA      -0.076000
     33 C23          5.0640   -11.9140     4.8710 cp         1 JJA       0.660500
     34 N24          6.2180   -11.3310     5.1630 nb         1 JJA      -0.616500
     35 C25          7.0570   -11.8850     6.0220 ca         1 JJA       0.444700
     36 C26          6.7150   -13.0900     6.6200 ca         1 JJA      -0.352600
     37 C27          5.4990   -13.6710     6.2920 ca         1 JJA       0.444700
     38 N28          4.7070   -13.0660     5.4250 nb         1 JJA      -0.616500
     39 H1           3.8380     0.8530     1.2840 ha         1 JJA       0.130500
     40 H2           4.5340     0.8510     3.6490 ha         1 JJA       0.109500
     41 H3           3.0040    -0.0050     5.3830 ha         1 JJA       0.101000
     42 H4           0.7760    -0.8520     4.7530 ha         1 JJA       0.109500
     43 H5           0.0780    -0.8470     2.3880 ha         1 JJA       0.130500
     44 H6           2.5610    -1.4740    -1.3890 hn         1 JJA       0.235500
     45 H7           0.4260    -5.0530     0.4530 ha         1 JJA       0.134000
     46 H8           3.8600    -5.1650    -3.1030 ha         1 JJA       0.128000
     47 H9           3.1680    -3.0070    -2.1450 ha         1 JJA       0.101000
     48 H10          4.8190    -7.0180    -3.0290 h1         1 JJA       0.003700
     49 H11          3.5530    -6.8770    -4.2560 h1         1 JJA       0.003700
     50 H12          4.5770    -9.4790    -3.0600 hc         1 JJA       0.025700
     51 H13          3.3110    -9.3380    -4.2880 hc         1 JJA       0.025700
     52 H14          4.9200    -8.2600    -5.8250 hc         1 JJA       0.003700
     53 H15          6.1860    -8.4000    -4.5970 hc         1 JJA       0.003700
     54 H16          5.4950    -9.8570    -5.3250 hc         1 JJA       0.003700
     55 H17          0.0110    -7.3480     0.1160 h1         1 JJA       0.035200
     56 H18          0.7750    -8.2260    -1.2160 h1         1 JJA       0.035200
     57 H19          2.7190    -7.7680     0.8280 hn         1 JJA       0.181500
     58 H20          3.9320    -8.5020     1.9580 ha         1 JJA       0.116000
     59 H21          5.4530    -9.5870     3.5590 ha         1 JJA       0.126500
     60 H22          2.6470   -12.7970     4.0530 ha         1 JJA       0.126500
     61 H23          1.1230   -11.7130     2.4520 ha         1 JJA       0.116000
     62 H24          7.9990   -11.4040     6.2560 h4         1 JJA      -0.014400
     63 H25          7.3830   -13.5650     7.3280 ha         1 JJA       0.124000
     64 H26          5.2030   -14.6120     6.7410 h4         1 JJA      -0.014400
@<TRIPOS>BOND
     1     1     3 2   
     2     2     3 2   
     3     3     4 1   
     4     3    10 1   
     5     4     5 ar  
     6     4     9 ar  
     7     5     6 ar  
     8     5    39 1   
     9     6     7 ar  
    10     6    40 1   
    11     7     8 ar  
    12     7    41 1   
    13     8     9 ar  
    14     8    42 1   
    15     9    43 1   
    16    10    11 1   
    17    10    44 1   
    18    11    12 2   
    19    11    13 1   
    20    13    14 ar  
    21    13    18 ar  
    22    14    15 ar  
    23    14    45 1   
    24    15    16 ar  
    25    15    23 1   
    26    16    17 ar  
    27    16    19 1   
    28    17    18 ar  
    29    17    46 1   
    30    18    47 1   
    31    19    20 1   
    32    20    21 1   
    33    20    48 1   
    34    20    49 1   
    35    21    22 1   
    36    21    50 1   
    37    21    51 1   
    38    22    52 1   
    39    22    53 1   
    40    22    54 1   
    41    23    24 1   
    42    23    55 1   
    43    23    56 1   
    44    24    25 1   
    45    24    57 1   
    46    25    26 2   
    47    25    27 1   
    48    27    28 ar  
    49    27    32 ar  
    50    28    29 ar  
    51    28    58 1   
    52    29    30 ar  
    53    29    59 1   
    54    30    31 ar  
    55    30    33 1   
    56    31    32 ar  
    57    31    60 1   
    58    32    61 1   
    59    33    34 ar  
    60    33    38 ar  
    61    34    35 ar  
    62    35    36 ar  
    63    35    62 1   
    64    36    37 ar  
    65    36    63 1   
    66    37    38 ar  
    67    37    64 1   
@<TRIPOS>SUBSTRUCTURE
     1 JJA         1 TEMP              0 ****  ****    0 ROOT
