@<TRIPOS>MOLECULE
JJB
   67    70     1     0     0
SMALL
bcc


@<TRIPOS>ATOM
      1 O1           0.0000     0.0000     0.0000 o          1 JJB      -0.563300
      2 O2           2.1540     0.9130    -0.8060 o          1 JJB      -0.563300
      3 S3           1.4210     0.0000     0.0000 s6         1 JJB       0.955600
      4 C4           2.0570     0.0000     1.6990 c3         1 JJB       0.063700
      5 C50          1.7430     1.3200     2.3530 ca         1 JJB      -0.091300
      6 C51          0.5560     1.4840     3.0430 ca         1 JJB      -0.082500
      7 C52          0.2670     2.6960     3.6440 ca         1 JJB      -0.097000
      8 C53          1.1650     3.7430     3.5540 ca         1 JJB      -0.093000
      9 C54          2.3520     3.5790     2.8630 ca         1 JJB      -0.097000
     10 C55          2.6430     2.3670     2.2680 ca         1 JJB      -0.082500
     11 N4           1.8310    -1.4890    -0.5950 ns         1 JJB      -0.323300
     12 C5           1.2870    -2.6010    -0.0610 c          1 JJB       0.678700
     13 O91          0.4950    -2.5090     0.8570 o          1 JJB      -0.617100
     14 C6           1.6520    -3.9300    -0.5910 ca         1 JJB      -0.224600
     15 C7           1.0880    -5.0820    -0.0390 ca         1 JJB       0.029000
     16 C8           1.4310    -6.3200    -0.5360 ca         1 JJB      -0.182300
     17 C9           2.3360    -6.4220    -1.5860 ca         1 JJB       0.200100
     18 C10          2.8990    -5.2780    -2.1380 ca         1 JJB      -0.226000
     19 C11          2.5570    -4.0360    -1.6500 ca         1 JJB      -0.017000
     20 O3           2.6720    -7.6440    -2.0730 os         1 JJB      -0.297900
     21 C12          3.6080    -7.6770    -3.1530 c3         1 JJB       0.199400
     22 C13          3.8610    -9.1290    -3.5650 c3         1 JJB      -0.034400
     23 C14          4.8620    -9.1650    -4.7200 c3         1 JJB       0.012900
     24 C15          0.8250    -7.5650     0.0590 c3         1 JJB       0.124300
     25 N99          1.7790    -8.1760     0.9870 ns         1 JJB      -0.196900
     26 C16          1.4510    -9.3080     1.6420 c          1 JJB       0.593700
     27 O99          0.3640    -9.8210     1.4620 o          1 JJB      -0.649100
     28 C17          2.4140    -9.9250     2.5790 ca         1 JJB      -0.138600
     29 C18          3.6600    -9.3330     2.7910 ca         1 JJB      -0.075500
     30 C19          4.5560    -9.9090     3.6650 ca         1 JJB      -0.073000
     31 C20          4.2190   -11.0830     4.3370 cp         1 JJB      -0.144500
     32 C21          2.9740   -11.6750     4.1260 ca         1 JJB      -0.073000
     33 C22          2.0740   -11.0980     3.2580 ca         1 JJB      -0.075500
     34 C23          5.1850   -11.7030     5.2770 cp         1 JJB       0.660500
     35 N24          4.8480   -12.8200     5.9080 nb         1 JJB      -0.616500
     36 C25          5.6850   -13.3970     6.7520 ca         1 JJB       0.444700
     37 C26          6.9280   -12.8220     6.9730 ca         1 JJB      -0.352600
     38 C27          7.2480   -11.6540     6.2960 ca         1 JJB       0.444700
     39 N28          6.3660   -11.1300     5.4610 nb         1 JJB      -0.616500
     40 H1           3.1300    -0.1480     1.6820 h1         1 JJB       0.077200
     41 H2           1.5900    -0.8010     2.2590 h1         1 JJB       0.077200
     42 H3          -0.1480     0.6640     3.1140 ha         1 JJB       0.115000
     43 H4          -0.6630     2.8240     4.1850 ha         1 JJB       0.105000
     44 H5           0.9380     4.6920     4.0230 ha         1 JJB       0.103000
     45 H6           3.0560     4.4000     2.7950 ha         1 JJB       0.105000
     46 H7           3.5730     2.2390     1.7270 ha         1 JJB       0.115000
     47 H8           2.4620    -1.5630    -1.3680 hn         1 JJB       0.238500
     48 H9           0.3830    -5.0030     0.7790 ha         1 JJB       0.134000
     49 H10          3.6020    -5.3620    -2.9580 ha         1 JJB       0.128000
     50 H11          2.9960    -3.1440    -2.0810 ha         1 JJB       0.102000
     51 H12          4.5400    -7.2240    -2.8370 h1         1 JJB       0.003700
     52 H13          3.2070    -7.1270    -3.9950 h1         1 JJB       0.003700
     53 H14          4.2620    -9.6790    -2.7220 hc         1 JJB       0.025200
     54 H15          2.9290    -9.5820    -3.8810 hc         1 JJB       0.025200
     55 H16          4.4610    -8.6150    -5.5630 hc         1 JJB       0.003700
     56 H17          5.0410   -10.1930    -5.0110 hc         1 JJB       0.003700
     57 H18          5.7940    -8.7120    -4.4040 hc         1 JJB       0.003700
     58 H19          0.5910    -8.2670    -0.7330 h1         1 JJB       0.035200
     59 H20         -0.0820    -7.3060     0.5910 h1         1 JJB       0.035200
     60 H21          2.6630    -7.7390     1.1560 hn         1 JJB       0.181500
     61 H22          3.9220    -8.4210     2.2690 ha         1 JJB       0.116000
     62 H23          5.5230    -9.4500     3.8290 ha         1 JJB       0.125500
     63 H24          2.7120   -12.5860     4.6510 ha         1 JJB       0.125500
     64 H25          1.1070   -11.5580     3.0940 ha         1 JJB       0.116000
     65 H26          5.4040   -14.3090     7.2650 h4         1 JJB      -0.014400
     66 H27          7.6330   -13.2740     7.6610 ha         1 JJB       0.124000
     67 H28          8.2110   -11.1810     6.4440 h4         1 JJB      -0.014400
@<TRIPOS>BOND
     1     1     3 2   
     2     2     3 2   
     3     3     4 1   
     4     3    11 1   
     5     4     5 1   
     6     4    40 1   
     7     4    41 1   
     8     5     6 ar  
     9     5    10 ar  
    10     6     7 ar  
    11     6    42 1   
    12     7     8 ar  
    13     7    43 1   
    14     8     9 ar  
    15     8    44 1   
    16     9    10 ar  
    17     9    45 1   
    18    10    46 1   
    19    11    12 1   
    20    11    47 1   
    21    12    13 2   
    22    12    14 1   
    23    14    15 ar  
    24    14    19 ar  
    25    15    16 ar  
    26    15    48 1   
    27    16    17 ar  
    28    16    24 1   
    29    17    18 ar  
    30    17    20 1   
    31    18    19 ar  
    32    18    49 1   
    33    19    50 1   
    34    20    21 1   
    35    21    22 1   
    36    21    51 1   
    37    21    52 1   
    38    22    23 1   
    39    22    53 1   
    40    22    54 1   
    41    23    55 1   
    42    23    56 1   
    43    23    57 1   
    44    24    25 1   
    45    24    58 1   
    46    24    59 1   
    47    25    26 1   
    48    25    60 1   
    49    26    27 2   
    50    26    28 1   
    51    28    29 ar  
    52    28    33 ar  
    53    29    30 ar  
    54    29    61 1   
    55    30    31 ar  
    56    30    62 1   
    57    31    32 ar  
    58    31    34 1   
    59    32    33 ar  
    60    32    63 1   
    61    33    64 1   
    62    34    35 ar  
    63    34    39 ar  
    64    35    36 ar  
    65    36    37 ar  
    66    36    65 1   
    67    37    38 ar  
    68    37    66 1   
    69    38    39 ar  
    70    38    67 1   
@<TRIPOS>SUBSTRUCTURE
     1 JJB         1 TEMP              0 ****  ****    0 ROOT
