@<TRIPOS>MOLECULE
molecule
   67    70     1     0     0
SMALL
bcc


@<TRIPOS>ATOM
      1 O1           0.0000     0.0000     0.0000 o          1 JJB      -0.606300
      2 O2           2.1540     0.9130    -0.8060 o          1 JJB      -0.606300
      3 S3           1.4210     0.0000     0.0000 s6         1 JJB       1.317600
      4 C4           2.0570     0.0000     1.6990 c3         1 JJB      -0.157300
      5 C50          1.7430     1.3200     2.3530 ca         1 JJB      -0.094300
      6 C51          0.5560     1.4840     3.0430 ca         1 JJB      -0.106500
      7 C52          0.2670     2.6960     3.6440 ca         1 JJB      -0.126500
      8 C53          1.1650     3.7430     3.5540 ca         1 JJB      -0.116000
      9 C54          2.3520     3.5790     2.8630 ca         1 JJB      -0.126500
     10 C55          2.6430     2.3670     2.2680 ca         1 JJB      -0.106500
     11 N4           1.8310    -1.4890    -0.5950 ns         1 JJB      -0.656300
     12 C5           1.2870    -2.6010    -0.0610 c          1 JJB       0.702700
     13 O91          0.4950    -2.5090     0.8570 o          1 JJB      -0.577100
     14 C6           1.6520    -3.9300    -0.5910 ca         1 JJB      -0.206600
     15 C7           1.0880    -5.0820    -0.0390 ca         1 JJB      -0.009000
     16 C8           1.4310    -6.3200    -0.5360 ca         1 JJB      -0.163300
     17 C9           2.3360    -6.4220    -1.5860 ca         1 JJB       0.189100
     18 C10          2.8990    -5.2780    -2.1380 ca         1 JJB      -0.237000
     19 C11          2.5570    -4.0360    -1.6500 ca         1 JJB      -0.049000
     20 O3           2.6720    -7.6440    -2.0730 os         1 JJB      -0.316900
     21 C12          3.6080    -7.6770    -3.1530 c3         1 JJB       0.133400
     22 C13          3.8610    -9.1290    -3.5650 c3         1 JJB      -0.084400
     23 C14          4.8620    -9.1650    -4.7200 c3         1 JJB      -0.091100
     24 C15          0.8250    -7.5650     0.0590 c3         1 JJB       0.173300
     25 N99          1.7790    -8.1760     0.9870 ns         1 JJB      -0.578900
     26 C16          1.4510    -9.3080     1.6420 c          1 JJB       0.671700
     27 O99          0.3640    -9.8210     1.4620 o          1 JJB      -0.607100
     28 C17          2.4140    -9.9250     2.5790 ca         1 JJB      -0.128600
     29 C18          3.6600    -9.3330     2.7910 ca         1 JJB      -0.103000
     30 C19          4.5560    -9.9090     3.6650 ca         1 JJB      -0.095500
     31 C20          4.2190   -11.0830     4.3370 cp         1 JJB      -0.125500
     32 C21          2.9740   -11.6750     4.1260 ca         1 JJB      -0.095500
     33 C22          2.0740   -11.0980     3.2580 ca         1 JJB      -0.103000
     34 C23          5.1850   -11.7030     5.2770 cp         1 JJB       0.739500
     35 N24          4.8480   -12.8200     5.9080 nb         1 JJB      -0.732000
     36 C25          5.6850   -13.3970     6.7520 ca         1 JJB       0.462700
     37 C26          6.9280   -12.8220     6.9730 ca         1 JJB      -0.388600
     38 C27          7.2480   -11.6540     6.2960 ca         1 JJB       0.462700
     39 N28          6.3660   -11.1300     5.4610 nb         1 JJB      -0.732000
     40 H1           3.1300    -0.1480     1.6820 h1         1 JJB       0.110200
     41 H2           1.5900    -0.8010     2.2590 h1         1 JJB       0.110200
     42 H3          -0.1480     0.6640     3.1140 ha         1 JJB       0.141000
     43 H4          -0.6630     2.8240     4.1850 ha         1 JJB       0.135000
     44 H5           0.9380     4.6920     4.0230 ha         1 JJB       0.132000
     45 H6           3.0560     4.4000     2.7950 ha         1 JJB       0.135000
     46 H7           3.5730     2.2390     1.7270 ha         1 JJB       0.141000
     47 H8           2.4620    -1.5630    -1.3680 hn         1 JJB       0.346500
     48 H9           0.3830    -5.0030     0.7790 ha         1 JJB       0.169000
     49 H10          3.6020    -5.3620    -2.9580 ha         1 JJB       0.145000
     50 H11          2.9960    -3.1440    -2.0810 ha         1 JJB       0.129000
     51 H12          4.5400    -7.2240    -2.8370 h1         1 JJB       0.038200
     52 H13          3.2070    -7.1270    -3.9950 h1         1 JJB       0.038200
     53 H14          4.2620    -9.6790    -2.7220 hc         1 JJB       0.059200
     54 H15          2.9290    -9.5820    -3.8810 hc         1 JJB       0.059200
     55 H16          4.4610    -8.6150    -5.5630 hc         1 JJB       0.039367
     56 H17          5.0410   -10.1930    -5.0110 hc         1 JJB       0.039367
     57 H18          5.7940    -8.7120    -4.4040 hc         1 JJB       0.039367
     58 H19          0.5910    -8.2670    -0.7330 h1         1 JJB       0.066700
     59 H20         -0.0820    -7.3060     0.5910 h1         1 JJB       0.066700
     60 H21          2.6630    -7.7390     1.1560 hn         1 JJB       0.317500
     61 H22          3.9220    -8.4210     2.2690 ha         1 JJB       0.144500
     62 H23          5.5230    -9.4500     3.8290 ha         1 JJB       0.157500
     63 H24          2.7120   -12.5860     4.6510 ha         1 JJB       0.157500
     64 H25          1.1070   -11.5580     3.0940 ha         1 JJB       0.144500
     65 H26          5.4040   -14.3090     7.2650 h4         1 JJB       0.031600
     66 H27          7.6330   -13.2740     7.6610 ha         1 JJB       0.147000
     67 H28          8.2110   -11.1810     6.4440 h4         1 JJB       0.031600
@<TRIPOS>BOND
     1     2     3 2
     2     4     3 1
     3     4     5 1
     4     3    11 1
     5     3     1 2
     6    11    12 1
     7    23    22 1
     8    19    18 ar
     9    19    14 ar
    10    10     5 ar
    11    10     9 ar
    12     5     6 ar
    13    18    17 ar
    14    22    21 1
    15    12    14 1
    16    12    13 2
    17    14    15 ar
    18     9     8 ar
    19     6     7 ar
    20    17    20 1
    21    17    16 ar
    22    21    20 1
    23    15    16 ar
    24     8     7 ar
    25    16    24 1
    26    24    25 1
    27    25    26 1
    28    27    26 2
    29    26    28 1
    30    28    33 ar
    31    28    29 ar
    32    33    32 ar
    33    29    30 ar
    34    32    31 ar
    35    30    31 ar
    36    31    34 1
    37    34    35 ar
    38    34    39 ar
    39    35    36 ar
    40    39    38 ar
    41    36    37 ar
    42    38    37 ar
    43     4    40 1
    44     4    41 1
    45     6    42 1
    46     7    43 1
    47     8    44 1
    48     9    45 1
    49    10    46 1
    50    11    47 1
    51    15    48 1
    52    18    49 1
    53    19    50 1
    54    21    51 1
    55    21    52 1
    56    22    53 1
    57    22    54 1
    58    23    55 1
    59    23    56 1
    60    23    57 1
    61    24    58 1
    62    24    59 1
    63    25    60 1
    64    29    61 1
    65    30    62 1
    66    32    63 1
    67    33    64 1
    68    36    65 1
    69    37    66 1
    70    38    67 1
@<TRIPOS>SUBSTRUCTURE
     1 JJB         1 TEMP              0 ****  ****    0 ROOT
