@<TRIPOS>MOLECULE
JJD
   50    52     1     0     0
SMALL
bcc


@<TRIPOS>ATOM
      1 C1           0.0000     0.0000     0.0000 c3         1 JJD       0.159200
      2 N2           1.4730     0.0000     0.0000 n          1 JJD      -0.052800
      3 C3           2.1150     0.0000     1.1850 c          1 JJD       0.591500
      4 N4           1.4590    -0.0010     2.3520 n          1 JJD       0.147800
      5 C5           0.0980    -0.0020     2.4570 c2         1 JJD       0.015400
      6 C6          -0.6860    -0.0020     1.3510 ce         1 JJD      -0.424400
      7 C7          -0.4650     1.2170    -0.7570 ca         1 JJD      -0.106300
      8 C8          -1.1610     1.0660    -1.9440 ca         1 JJD      -0.043000
      9 C9          -1.5890     2.1770    -2.6410 ca         1 JJD      -0.084000
     10 C10         -1.3200     3.4550    -2.1470 ca         1 JJD      -0.018000
     11 C11         -0.6170     3.5990    -0.9490 ca         1 JJD      -0.084000
     12 C12         -0.2000     2.4810    -0.2590 ca         1 JJD      -0.043000
     13 C13         -1.7600     4.6120    -2.8660 cg         1 JJD       0.266800
     14 N14         -2.1050     5.5420    -3.4220 n1         1 JJD      -0.433800
     15 C15         -2.0880    -0.0020     1.4540 c          1 JJD       0.711300
     16 O16         -2.6160     0.1060     2.5430 o          1 JJD      -0.602100
     17 C17         -2.9350    -0.1370     0.2150 c3         1 JJD      -0.140100
     18 C18          2.2110    -0.0030     3.5340 ca         1 JJD      -0.056400
     19 C19          2.3310    -1.1660     4.2810 ca         1 JJD      -0.041000
     20 C20          3.0750    -1.1650     5.4450 ca         1 JJD      -0.218300
     21 C21          3.7000    -0.0050     5.8660 ca         1 JJD      -0.047000
     22 C22          3.5830     1.1550     5.1230 ca         1 JJD      -0.111000
     23 C23          2.8460     1.1590     3.9560 ca         1 JJD      -0.052000
     24 C24          3.2050    -2.4270     6.2570 c3         1 JJD       0.640200
     25 F25          4.3210    -3.1490     5.8210 f          1 JJD      -0.210967
     26 F26          3.3600    -2.0990     7.6080 f          1 JJD      -0.210967
     27 F27          2.0540    -3.2060     6.0960 f          1 JJD      -0.210967
     28 C28         -0.5410    -0.0030     3.8210 c3         1 JJD      -0.154900
     29 O29          3.3300     0.0000     1.1940 o          1 JJD      -0.694500
     30 C30          2.2220     0.0010    -1.2590 c3         1 JJD      -0.093000
     31 C31          2.6030     1.4140    -1.6160 c          1 JJD       0.979600
     32 O32          3.1930     1.6730    -2.7930 o          1 JJD      -0.889800
     33 O33          2.3760     2.3150    -0.8440 o          1 JJD      -0.889800
     34 H1          -0.3300    -0.8800    -0.5380 h1         1 JJD       0.018700
     35 H8          -1.5880     0.3730    -2.6580 ha         1 JJD       0.129000
     36 H9          -2.2970     2.2720    -3.4550 ha         1 JJD       0.112000
     37 H11         -0.2410     4.6150    -0.9530 ha         1 JJD       0.112000
     38 H12          0.1610     2.1040     0.6910 ha         1 JJD       0.129000
     39 H17         -2.7500     0.5190    -0.6270 hc         1 JJD       0.027700
     40 H17A        -4.0060    -0.1440     0.3790 hc         1 JJD       0.027700
     41 H17B        -2.7990    -1.0120    -0.4090 hc         1 JJD       0.027700
     42 H19          2.0440    -2.0880     3.7890 ha         1 JJD       0.125000
     43 H21          4.3590    -0.1630     6.7110 ha         1 JJD       0.111000
     44 H22          3.9720     2.0950     5.4960 ha         1 JJD       0.110000
     45 H23          3.2990     1.9840     3.4190 ha         1 JJD       0.151000
     46 H28         -0.5910    -1.0720     3.9880 hc         1 JJD       0.083367
     47 H28A        -0.0090     0.5180     4.6080 hc         1 JJD       0.083367
     48 H28B        -1.4010     0.3700     3.2780 hc         1 JJD       0.083367
     49 H30          2.8550    -0.8070    -1.6070 h1         1 JJD       0.035700
     50 H30A         1.4910     0.0040    -2.0580 h1         1 JJD       0.035700
@<TRIPOS>BOND
     1     1     2 1   
     2     1     6 1   
     3     1     7 1   
     4     1    34 1   
     5     2     3 1   
     6     2    30 1   
     7     3     4 1   
     8     3    29 2   
     9     4     5 1   
    10     4    18 1   
    11     5     6 2   
    12     5    28 1   
    13     6    15 1   
    14     7     8 ar  
    15     7    12 ar  
    16     8     9 ar  
    17     8    35 1   
    18     9    10 ar  
    19     9    36 1   
    20    10    11 ar  
    21    10    13 1   
    22    11    12 ar  
    23    11    37 1   
    24    12    38 1   
    25    13    14 3   
    26    15    16 2   
    27    15    17 1   
    28    17    39 1   
    29    17    40 1   
    30    17    41 1   
    31    18    19 ar  
    32    18    23 ar  
    33    19    20 ar  
    34    19    42 1   
    35    20    21 ar  
    36    20    24 1   
    37    21    22 ar  
    38    21    43 1   
    39    22    23 ar  
    40    22    44 1   
    41    23    45 1   
    42    24    25 1   
    43    24    26 1   
    44    24    27 1   
    45    28    46 1   
    46    28    47 1   
    47    28    48 1   
    48    30    31 1   
    49    30    49 1   
    50    30    50 1   
    51    31    32 1   
    52    31    33 1   
@<TRIPOS>SUBSTRUCTURE
     1 JJD         1 TEMP              0 ****  ****    0 ROOT
