@<TRIPOS>MOLECULE
JJG
   32    33     1     0     0
SMALL
bcc


@<TRIPOS>ATOM
      1 C15          0.0000     0.0000     0.0000 c3         1 JJG       0.108800
      2 C01          8.5780     1.4480    -2.1970 ca         1 JJG      -0.104000
      3 C02          8.0740     2.6010    -2.7720 ca         1 JJG      -0.086500
      4 C03          6.7270     2.8880    -2.6830 ca         1 JJG      -0.100500
      5 C04          5.8750     2.0170    -2.0130 ca         1 JJG       0.061900
      6 C05          6.3850     0.8590    -1.4360 ca         1 JJG      -0.100500
      7 C06          7.7330     0.5760    -1.5340 ca         1 JJG      -0.086500
      8 S07          4.1550     2.3790    -1.8960 ss         1 JJG      -0.336000
      9 C08          3.5050     0.9720    -0.9540 c3         1 JJG       0.064700
     10 C09          1.9970     1.1390    -0.7640 c3         1 JJG       0.173800
     11 N10          1.4710     0.0000     0.0000 n3         1 JJG      -0.540600
     12 C11          1.9920     0.0000     1.3740 c3         1 JJG       0.108800
     13 C12          1.4670    -1.2330     2.1140 c3         1 JJG       0.214900
     14 O13          0.0370    -1.2320     2.0780 os         1 JJG      -0.410600
     15 C14         -0.5040    -1.2340     0.7540 c3         1 JJG       0.214900
     16 H151        -0.3610    -0.0290    -1.0210 h1         1 JJG       0.019450
     17 H152        -0.3610     0.8960     0.4910 h1         1 JJG       0.019450
     18 H021         8.7390     3.2810    -3.2920 ha         1 JJG       0.104000
     19 H031         6.3340     3.7910    -3.1340 ha         1 JJG       0.115500
     20 H051         5.7240     0.1770    -0.9150 ha         1 JJG       0.115500
     21 H061         8.1300    -0.3260    -1.0850 ha         1 JJG       0.104000
     22 H081         3.9890     0.9320     0.0150 h1         1 JJG       0.048700
     23 H082         3.7020     0.0540    -1.4940 h1         1 JJG       0.048700
     24 H091         1.5130     1.1790    -1.7330 h1         1 JJG       0.023200
     25 H092         1.8000     2.0580    -0.2240 h1         1 JJG       0.023200
     26 H112         3.0750    -0.0290     1.3490 h1         1 JJG       0.019450
     27 H111         1.6600     0.8960     1.8860 h1         1 JJG       0.019450
     28 H121         1.8400    -2.1290     1.6320 h1         1 JJG       0.013450
     29 H122         1.8020    -1.2050     3.1440 h1         1 JJG       0.013450
     30 H142        -0.1850    -2.1290     0.2350 h1         1 JJG       0.013450
     31 H141        -1.5860    -1.2060     0.8070 h1         1 JJG       0.013450
     32 H011         9.6350     1.2250    -2.2700 ha         1 JJG       0.104000
@<TRIPOS>BOND
     1     1    11 1   
     2     1    15 1   
     3     1    16 1   
     4     1    17 1   
     5     2     3 ar  
     6     2     7 ar  
     7     2    32 1   
     8     3     4 ar  
     9     3    18 1   
    10     4     5 ar  
    11     4    19 1   
    12     5     6 ar  
    13     5     8 1   
    14     6     7 ar  
    15     6    20 1   
    16     7    21 1   
    17     8     9 1   
    18     9    10 1   
    19     9    22 1   
    20     9    23 1   
    21    10    11 1   
    22    10    24 1   
    23    10    25 1   
    24    11    12 1   
    25    12    13 1   
    26    12    26 1   
    27    12    27 1   
    28    13    14 1   
    29    13    28 1   
    30    13    29 1   
    31    14    15 1   
    32    15    30 1   
    33    15    31 1   
@<TRIPOS>SUBSTRUCTURE
     1 JJG         1 TEMP              0 ****  ****    0 ROOT
