@<TRIPOS>MOLECULE
molecule
   32    33     1     0     0
SMALL
bcc


@<TRIPOS>ATOM
      1 C15          0.0000     0.0000     0.0000 c3         1 JJG       0.122300
      2 C01          8.5780     1.4480    -2.1970 ca         1 JJG      -0.136000
      3 C02          8.0740     2.6010    -2.7720 ca         1 JJG      -0.112500
      4 C03          6.7270     2.8880    -2.6830 ca         1 JJG      -0.130500
      5 C04          5.8750     2.0170    -2.0130 ca         1 JJG       0.043900
      6 C05          6.3850     0.8590    -1.4360 ca         1 JJG      -0.130500
      7 C06          7.7330     0.5760    -1.5340 ca         1 JJG      -0.112500
      8 S07          4.1550     2.3790    -1.8960 ss         1 JJG      -0.261000
      9 C08          3.5050     0.9720    -0.9540 c3         1 JJG      -0.006300
     10 C09          1.9970     1.1390    -0.7640 c3         1 JJG       0.176800
     11 N10          1.4710     0.0000     0.0000 n3         1 JJG      -0.729600
     12 C11          1.9920     0.0000     1.3740 c3         1 JJG       0.122300
     13 C12          1.4670    -1.2330     2.1140 c3         1 JJG       0.139400
     14 O13          0.0370    -1.2320     2.0780 os         1 JJG      -0.423600
     15 C14         -0.5040    -1.2340     0.7540 c3         1 JJG       0.139400
     16 H151        -0.3610    -0.0290    -1.0210 h1         1 JJG       0.044450
     17 H152        -0.3610     0.8960     0.4910 h1         1 JJG       0.044450
     18 H021         8.7390     3.2810    -3.2920 ha         1 JJG       0.132000
     19 H031         6.3340     3.7910    -3.1340 ha         1 JJG       0.136000
     20 H051         5.7240     0.1770    -0.9150 ha         1 JJG       0.136000
     21 H061         8.1300    -0.3260    -1.0850 ha         1 JJG       0.132000
     22 H081         3.9890     0.9320     0.0150 h1         1 JJG       0.070700
     23 H082         3.7020     0.0540    -1.4940 h1         1 JJG       0.070700
     24 H091         1.5130     1.1790    -1.7330 h1         1 JJG       0.047700
     25 H092         1.8000     2.0580    -0.2240 h1         1 JJG       0.047700
     26 H112         3.0750    -0.0290     1.3490 h1         1 JJG       0.044450
     27 H111         1.6600     0.8960     1.8860 h1         1 JJG       0.044450
     28 H121         1.8400    -2.1290     1.6320 h1         1 JJG       0.054200
     29 H122         1.8020    -1.2050     3.1440 h1         1 JJG       0.054200
     30 H142        -0.1850    -2.1290     0.2350 h1         1 JJG       0.054200
     31 H141        -1.5860    -1.2060     0.8070 h1         1 JJG       0.054200
     32 H011         9.6350     1.2250    -2.2700 ha         1 JJG       0.131000
@<TRIPOS>BOND
     1     7     6 ar
     2     7     2 ar
     3     6     5 ar
     4     2     3 ar
     5     5     8 1
     6     5     4 ar
     7     3     4 ar
     8     8     9 1
     9     9    10 1
    10    10    11 1
    11    11     1 1
    12    11    12 1
    13     1    15 1
    14    12    13 1
    15    15    14 1
    16    13    14 1
    17     1    16 1
    18     1    17 1
    19     2    32 1
    20     3    18 1
    21     4    19 1
    22     6    20 1
    23     7    21 1
    24     9    22 1
    25     9    23 1
    26    10    24 1
    27    10    25 1
    28    12    26 1
    29    12    27 1
    30    13    28 1
    31    13    29 1
    32    15    30 1
    33    15    31 1
@<TRIPOS>SUBSTRUCTURE
     1 JJG         1 TEMP              0 ****  ****    0 ROOT
