@<TRIPOS>MOLECULE
JJM
   31    33     1     0     0
SMALL
bcc


@<TRIPOS>ATOM
      1 C10          0.0000     0.0000     0.0000 ca         1 JJM      -0.572500
      2 N12         -2.1610     0.0010    -0.4280 nc         1 JJM      -0.640100
      3 C02          5.6490     0.4060    -2.1190 ca         1 JJM      -0.071300
      4 C03          6.2660    -0.3490    -1.1380 ca         1 JJM      -0.114000
      5 C04          5.5090    -0.9870    -0.1730 ca         1 JJM      -0.078000
      6 C05          4.1330    -0.8720    -0.1860 ca         1 JJM      -0.107000
      7 C06          3.5100    -0.1160    -1.1700 ca         1 JJM      -0.010400
      8 C07          4.2740     0.5280    -2.1350 ca         1 JJM      -0.134000
      9 N08          2.1170     0.0010    -1.1870 nu         1 JJM      -0.275300
     10 C09          1.4080     0.0000     0.0000 ca         1 JJM       0.603200
     11 C11         -0.9920     0.0010    -1.0040 cd         1 JJM       0.467800
     12 N13         -2.0010     0.0060     0.9640 na         1 JJM       0.383200
     13 C14         -0.6670     0.0060     1.2410 ca         1 JJM       0.345800
     14 N15          0.0560     0.0100     2.3590 nb         1 JJM      -0.697000
     15 C16          1.3710     0.0080     2.3080 ca         1 JJM       0.712900
     16 N17          2.0400     0.0000     1.1690 nb         1 JJM      -0.745000
     17 C18         -3.0830     0.0070     1.9520 c3         1 JJM       0.033600
     18 H011         6.3910     2.1720    -3.0480 hc         1 JJM       0.007367
     19 H012         6.1260     0.8160    -4.1530 hc         1 JJM       0.007367
     20 H013         7.5160     0.8070    -3.0590 hc         1 JJM       0.007367
     21 H031         7.3450    -0.4400    -1.1260 ha         1 JJM       0.106000
     22 H041         5.9960    -1.5770     0.5950 ha         1 JJM       0.103000
     23 H051         3.5400    -1.3740     0.5690 ha         1 JJM       0.138000
     24 H071         3.7910     1.1180    -2.9040 ha         1 JJM       0.107000
     25 H081         1.6320     0.0780    -2.0590 hn         1 JJM       0.286800
     26 H111        -0.8130    -0.0020    -2.0720 h4         1 JJM       0.007800
     27 H161         1.9280     0.0080     3.2380 h5         1 JJM      -0.003900
     28 H181        -3.0090     0.8960     2.5670 h1         1 JJM       0.022700
     29 H182        -3.0010    -0.8730     2.5790 h1         1 JJM       0.022700
     30 H183        -4.0380    -0.0000     1.4420 h1         1 JJM       0.022700
     31 C01          6.4790     1.0990    -3.1690 c3         1 JJM       0.064200
@<TRIPOS>BOND
     1     1    10 ar  
     2     1    11 1   
     3     1    13 ar  
     4     2    11 2   
     5     2    12 1   
     6     3     4 ar  
     7     3     8 ar  
     8     3    31 1   
     9     4     5 ar  
    10     4    21 1   
    11     5     6 ar  
    12     5    22 1   
    13     6     7 ar  
    14     6    23 1   
    15     7     8 ar  
    16     7     9 1   
    17     8    24 1   
    18     9    10 1   
    19     9    25 1   
    20    10    16 ar  
    21    11    26 1   
    22    12    13 1   
    23    12    17 1   
    24    13    14 ar  
    25    14    15 ar  
    26    15    16 ar  
    27    15    27 1   
    28    17    28 1   
    29    17    29 1   
    30    17    30 1   
    31    18    31 1   
    32    19    31 1   
    33    20    31 1   
@<TRIPOS>SUBSTRUCTURE
     1 JJM         1 TEMP              0 ****  ****    0 ROOT
