@<TRIPOS>MOLECULE
molecule
   31    33     1     0     0
SMALL
bcc


@<TRIPOS>ATOM
      1 C10          0.0000     0.0000     0.0000 ca         1 JJM      -0.551500
      2 N12         -2.1610     0.0010    -0.4280 nc         1 JJM      -0.503100
      3 C02          5.6490     0.4060    -2.1190 ca         1 JJM      -0.065300
      4 C03          6.2660    -0.3490    -1.1380 ca         1 JJM      -0.144000
      5 C04          5.5090    -0.9870    -0.1730 ca         1 JJM      -0.110000
      6 C05          4.1330    -0.8720    -0.1860 ca         1 JJM      -0.126000
      7 C06          3.5100    -0.1160    -1.1700 ca         1 JJM       0.150600
      8 C07          4.2740     0.5280    -2.1350 ca         1 JJM      -0.164000
      9 N08          2.1170     0.0010    -1.1870 nu         1 JJM      -0.754300
     10 C09          1.4080     0.0000     0.0000 ca         1 JJM       0.786200
     11 C11         -0.9920     0.0010    -1.0040 cd         1 JJM       0.400800
     12 N13         -2.0010     0.0060     0.9640 na         1 JJM      -0.025800
     13 C14         -0.6670     0.0060     1.2410 ca         1 JJM       0.533800
     14 N15          0.0560     0.0100     2.3590 nb         1 JJM      -0.805000
     15 C16          1.3710     0.0080     2.3080 ca         1 JJM       0.757900
     16 N17          2.0400     0.0000     1.1690 nb         1 JJM      -0.835000
     17 C18         -3.0830     0.0070     1.9520 c3         1 JJM       0.074600
     18 H011         6.3910     2.1720    -3.0480 hc         1 JJM       0.043700
     19 H012         6.1260     0.8160    -4.1530 hc         1 JJM       0.043700
     20 H013         7.5160     0.8070    -3.0590 hc         1 JJM       0.043700
     21 H031         7.3450    -0.4400    -1.1260 ha         1 JJM       0.130000
     22 H041         5.9960    -1.5770     0.5950 ha         1 JJM       0.133000
     23 H051         3.5400    -1.3740     0.5690 ha         1 JJM       0.159000
     24 H071         3.7910     1.1180    -2.9040 ha         1 JJM       0.129000
     25 H081         1.6320     0.0780    -2.0590 hn         1 JJM       0.457800
     26 H111        -0.8130    -0.0020    -2.0720 h4         1 JJM       0.053800
     27 H161         1.9280     0.0080     3.2380 h5         1 JJM       0.062100
     28 H181        -3.0090     0.8960     2.5670 h1         1 JJM       0.057700
     29 H182        -3.0010    -0.8730     2.5790 h1         1 JJM       0.057700
     30 H183        -4.0380    -0.0000     1.4420 h1         1 JJM       0.057700
     31 C01          6.4790     1.0990    -3.1690 c3         1 JJM      -0.046800
@<TRIPOS>BOND
     1    17    12 1
     2     2    12 1
     3     2    11 2
     4    12    13 1
     5    11     1 1
     6    13    14 ar
     7    13     1 ar
     8    14    15 ar
     9     1    10 ar
    10    15    16 ar
    11    10    16 ar
    12    10     9 1
    13     9     7 1
    14     7     6 ar
    15     7     8 ar
    16     6     5 ar
    17     8     3 ar
    18     5     4 ar
    19     3     4 ar
    20     3    31 1
    21    31    18 1
    22    31    19 1
    23    31    20 1
    24     4    21 1
    25     5    22 1
    26     6    23 1
    27     8    24 1
    28     9    25 1
    29    11    26 1
    30    15    27 1
    31    17    28 1
    32    17    29 1
    33    17    30 1
@<TRIPOS>SUBSTRUCTURE
     1 JJM         1 TEMP              0 ****  ****    0 ROOT
