@<TRIPOS>MOLECULE
JJP
   36    39     1     0     0
SMALL
bcc


@<TRIPOS>ATOM
      1 C10          0.0000     0.0000     0.0000 ca         1 JJP      -0.046000
      2 C13          1.4780    -0.0040     2.4420 ca         1 JJP      -0.105000
      3 C17          5.3000     1.5010    -1.4250 c3         1 JJP       0.193100
      4 N02          3.4590     0.0000     0.8830 na         1 JJP       0.439600
      5 C03          3.5950     0.0070    -0.4790 cc         1 JJP      -0.230300
      6 C04          4.8940     0.0250    -1.2590 c3         1 JJP       0.032500
      7 C05          4.5970    -0.5310    -2.6610 c3         1 JJP      -0.006400
      8 C06          3.4560     0.2720    -3.2840 c3         1 JJP       0.120500
      9 C07          2.1450    -0.0010    -2.5530 c3         1 JJP       0.047800
     10 C08          2.3790     0.0000    -1.0650 cd         1 JJP      -0.165400
     11 C09          1.3970     0.0000     0.0000 ca         1 JJP      -0.092800
     12 C11         -0.6210     0.0030     1.2260 ca         1 JJP      -0.136000
     13 C12          0.0940     0.0010     2.4130 ca         1 JJP      -0.089000
     14 C14          2.1340     0.0000     1.2130 ca         1 JJP      -0.217200
     15 N15          3.7700     1.6940    -3.3310 n7         1 JJP      -0.574200
     16 C16          4.1020     2.2520    -2.0160 c3         1 JJP       0.097800
     17 O18          5.6390     2.0560    -0.1520 oh         1 JJP      -0.593800
     18 H101        -0.5670     0.0020    -0.9230 ha         1 JJP       0.104000
     19 H131         2.0250    -0.0060     3.3770 ha         1 JJP       0.106000
     20 H171         6.1450     1.5730    -2.0990 h1         1 JJP       0.013700
     21 H011         5.4900    -0.2430     1.3240 h1         1 JJP       0.022033
     22 H012         4.6520     0.9680     2.3040 h1         1 JJP       0.022033
     23 H013         4.3810    -0.7540     2.6030 h1         1 JJP       0.022033
     24 H041         5.6660    -0.5460    -0.7590 hc         1 JJP       0.037700
     25 H052         4.3080    -1.5720    -2.5850 hc         1 JJP       0.024700
     26 H051         5.4820    -0.4440    -3.2800 hc         1 JJP       0.024700
     27 H061         3.3370    -0.0690    -4.3060 h1         1 JJP       0.027700
     28 H072         1.4270     0.7700    -2.8040 hc         1 JJP       0.020200
     29 H071         1.7610    -0.9680    -2.8540 hc         1 JJP       0.020200
     30 H111        -1.7040     0.0070     1.2650 ha         1 JJP       0.097000
     31 H121        -0.4490     0.0030     3.3500 ha         1 JJP       0.095000
     32 H151         2.9950     2.1940    -3.7190 hn         1 JJP       0.258800
     33 H162         3.2500     2.1460    -1.3560 h1         1 JJP       0.028700
     34 H161         4.3530     3.3000    -2.1240 h1         1 JJP       0.028700
     35 H181         6.3820     2.6280    -0.2470 ho         1 JJP       0.391000
     36 C01          4.5680    -0.0080     1.8410 c3         1 JJP      -0.017400
@<TRIPOS>BOND
     1     1    11 ar  
     2     1    12 ar  
     3     1    18 1   
     4     2    13 ar  
     5     2    14 ar  
     6     2    19 1   
     7     3     6 1   
     8     3    16 1   
     9     3    17 1   
    10     3    20 1   
    11     4     5 1   
    12     4    14 1   
    13     4    36 1   
    14     5     6 1   
    15     5    10 2   
    16     6     7 1   
    17     6    24 1   
    18     7     8 1   
    19     7    25 1   
    20     7    26 1   
    21     8     9 1   
    22     8    15 1   
    23     8    27 1   
    24     9    10 1   
    25     9    28 1   
    26     9    29 1   
    27    10    11 1   
    28    11    14 ar  
    29    12    13 ar  
    30    12    30 1   
    31    13    31 1   
    32    15    16 1   
    33    15    32 1   
    34    16    33 1   
    35    16    34 1   
    36    17    35 1   
    37    21    36 1   
    38    22    36 1   
    39    23    36 1   
@<TRIPOS>SUBSTRUCTURE
     1 JJP         1 TEMP              0 ****  ****    0 ROOT
