@<TRIPOS>MOLECULE
molecule
   36    39     1     0     0
SMALL
bcc


@<TRIPOS>ATOM
      1 C10          0.0000     0.0000     0.0000 ca         1 JJP      -0.080000
      2 C13          1.4780    -0.0040     2.4420 ca         1 JJP      -0.142000
      3 C17          5.3000     1.5010    -1.4250 c3         1 JJP       0.151100
      4 N02          3.4590     0.0000     0.8830 na         1 JJP      -0.047400
      5 C03          3.5950     0.0070    -0.4790 cc         1 JJP      -0.040300
      6 C04          4.8940     0.0250    -1.2590 c3         1 JJP      -0.007500
      7 C05          4.5970    -0.5310    -2.6610 c3         1 JJP      -0.060400
      8 C06          3.4560     0.2720    -3.2840 c3         1 JJP       0.167500
      9 C07          2.1450    -0.0010    -2.5530 c3         1 JJP      -0.032200
     10 C08          2.3790     0.0000    -1.0650 cd         1 JJP      -0.166400
     11 C09          1.3970     0.0000     0.0000 ca         1 JJP      -0.095800
     12 C11         -0.6210     0.0030     1.2260 ca         1 JJP      -0.161000
     13 C12          0.0940     0.0010     2.4130 ca         1 JJP      -0.114000
     14 C14          2.1340     0.0000     1.2130 ca         1 JJP      -0.035200
     15 N15          3.7700     1.6940    -3.3310 n7         1 JJP      -0.818200
     16 C16          4.1020     2.2520    -2.0160 c3         1 JJP       0.131800
     17 O18          5.6390     2.0560    -0.1520 oh         1 JJP      -0.608800
     18 H101        -0.5670     0.0020    -0.9230 ha         1 JJP       0.132000
     19 H131         2.0250    -0.0060     3.3770 ha         1 JJP       0.131000
     20 H171         6.1450     1.5730    -2.0990 h1         1 JJP       0.047700
     21 H011         5.4900    -0.2430     1.3240 h1         1 JJP       0.049700
     22 H012         4.6520     0.9680     2.3040 h1         1 JJP       0.049700
     23 H013         4.3810    -0.7540     2.6030 h1         1 JJP       0.049700
     24 H041         5.6660    -0.5460    -0.7590 hc         1 JJP       0.067700
     25 H052         4.3080    -1.5720    -2.5850 hc         1 JJP       0.056200
     26 H051         5.4820    -0.4440    -3.2800 hc         1 JJP       0.056200
     27 H061         3.3370    -0.0690    -4.3060 h1         1 JJP       0.057700
     28 H072         1.4270     0.7700    -2.8040 hc         1 JJP       0.049700
     29 H071         1.7610    -0.9680    -2.8540 hc         1 JJP       0.049700
     30 H111        -1.7040     0.0070     1.2650 ha         1 JJP       0.122000
     31 H121        -0.4490     0.0030     3.3500 ha         1 JJP       0.124000
     32 H151         2.9950     2.1940    -3.7190 hn         1 JJP       0.362800
     33 H162         3.2500     2.1460    -1.3560 h1         1 JJP       0.052200
     34 H161         4.3530     3.3000    -2.1240 h1         1 JJP       0.052200
     35 H181         6.3820     2.6280    -0.2470 ho         1 JJP       0.403000
     36 C01          4.5680    -0.0080     1.8410 c3         1 JJP       0.045600
@<TRIPOS>BOND
     1    36     4 1
     2    17     3 1
     3     4    14 1
     4     4     5 1
     5     3     6 1
     6     3    16 1
     7     2    14 ar
     8     2    13 ar
     9     6     5 1
    10     6     7 1
    11    14    11 ar
    12     5    10 2
    13    13    12 ar
    14    16    15 1
    15     7     8 1
    16    11    10 1
    17    11     1 ar
    18    10     9 1
    19    15     8 1
    20    12     1 ar
    21     8     9 1
    22     1    18 1
    23     2    19 1
    24     3    20 1
    25    36    21 1
    26    36    22 1
    27    36    23 1
    28     6    24 1
    29     7    25 1
    30     7    26 1
    31     8    27 1
    32     9    28 1
    33     9    29 1
    34    12    30 1
    35    13    31 1
    36    15    32 1
    37    16    33 1
    38    16    34 1
    39    17    35 1
@<TRIPOS>SUBSTRUCTURE
     1 JJP         1 TEMP              0 ****  ****    0 ROOT
