@<TRIPOS>MOLECULE
molecule
   44    46     1     0     0
SMALL
bcc


@<TRIPOS>ATOM
      1 F25          0.0000     0.0000     0.0000 f          1 JJS      -0.219633
      2 C24          1.3990     0.0000     0.0000 c3         1 JJS       0.676200
      3 F27          1.8650     0.0000     1.3190 f          1 JJS      -0.219633
      4 F26          1.8650    -1.1420    -0.6590 f          1 JJS      -0.219633
      5 C20          1.9010     1.2300    -0.7110 ca         1 JJS      -0.141300
      6 C21          1.0020     2.1400    -1.2360 ca         1 JJS      -0.079000
      7 C22          1.4580     3.2700    -1.8890 ca         1 JJS      -0.139000
      8 C23          2.8140     3.4930    -2.0190 ca         1 JJS      -0.092000
      9 C19          3.2590     1.4510    -0.8320 ca         1 JJS      -0.076000
     10 C18          3.7210     2.5830    -1.4920 ca         1 JJS       0.022600
     11 N4           5.0970     2.8070    -1.6210 n          1 JJS      -0.286200
     12 C3           5.7080     2.3650    -2.7280 c          1 JJS       0.815500
     13 O29          5.0490     1.7890    -3.5720 o          1 JJS      -0.647500
     14 C5           5.7390     3.4690    -0.6160 c2         1 JJS       0.135400
     15 C28          4.9570     3.9290     0.5860 c3         1 JJS      -0.069900
     16 C6           7.0700     3.7160    -0.6810 ce         1 JJS      -0.370400
     17 C15          7.7340     4.3960     0.3540 c          1 JJS       0.585300
     18 O16          7.1270     4.7230     1.3540 o          1 JJS      -0.563100
     19 C17          9.2000     4.7210     0.2220 c3         1 JJS      -0.194100
     20 C1           7.8160     3.2340    -1.9080 c3         1 JJS       0.206200
     21 N2           7.0280     2.5360    -2.9380 ns         1 JJS      -0.565900
     22 C7           8.9140     2.3080    -1.4500 ca         1 JJS      -0.244600
     23 C8           8.6040     1.0830    -0.8840 ca         1 JJS       0.445200
     24 N9           9.5530     0.2660    -0.4800 nb         1 JJS      -0.658000
     25 C10         10.8380     0.5790    -0.5980 ca         1 JJS       0.507300
     26 C13         11.8380    -0.3420    -0.1460 cg         1 JJS       0.135800
     27 N14         12.6420    -1.0570     0.2200 n1         1 JJS      -0.327800
     28 C11         11.2230     1.7950    -1.1600 ca         1 JJS      -0.209300
     29 C12         10.2440     2.6730    -1.5980 ca         1 JJS      -0.079000
     30 H21         -0.0580     2.2630    -1.4220 ha         1 JJS       0.167000
     31 H19          3.9010     0.5840    -0.9250 ha         1 JJS       0.165000
     32 H22          0.8050     3.9270    -2.4500 ha         1 JJS       0.148000
     33 H23          3.3260     4.3240    -2.4890 ha         1 JJS       0.147000
     34 H2           7.5650     2.0250    -3.6110 hn         1 JJS       0.359500
     35 H281         5.4450     4.8950     0.5280 hc         1 JJS       0.092033
     36 H282         5.4690     3.3430     1.3390 hc         1 JJS       0.092033
     37 H283         3.8970     4.0050     0.3750 hc         1 JJS       0.092033
     38 H1           8.2750     4.0970    -2.3750 h1         1 JJS       0.062700
     39 H171         9.1980     4.8790    -0.8500 hc         1 JJS       0.068033
     40 H172         9.5500     5.3840     1.0030 hc         1 JJS       0.068033
     41 H173         9.7410     3.7840     0.2690 hc         1 JJS       0.068033
     42 H8           7.5790     0.7340    -0.8980 h4         1 JJS       0.036100
     43 H12         10.3590     3.5030    -2.2850 ha         1 JJS       0.151000
     44 H11         12.2930     1.8130    -1.3250 ha         1 JJS       0.157000
@<TRIPOS>BOND
     1     1     2 1
     2     2     3 1
     3     2     4 1
     4     2     5 1
     5     5     6 ar
     6     5     9 ar
     7     6     7 ar
     8     7     8 ar
     9     8    10 ar
    10     9    10 ar
    11    10    11 1
    12    11    12 1
    13    11    14 1
    14    12    13 2
    15    12    21 1
    16    14    15 1
    17    14    16 2
    18    16    17 1
    19    16    20 1
    20    17    18 2
    21    17    19 1
    22    20    21 1
    23    20    22 1
    24    22    23 ar
    25    22    29 ar
    26    23    24 ar
    27    24    25 ar
    28    25    26 1
    29    25    28 ar
    30    26    27 3
    31    28    29 ar
    32     6    30 1
    33     9    31 1
    34     7    32 1
    35     8    33 1
    36    21    34 1
    37    15    35 1
    38    15    36 1
    39    15    37 1
    40    20    38 1
    41    19    39 1
    42    19    40 1
    43    19    41 1
    44    23    42 1
    45    29    43 1
    46    28    44 1
@<TRIPOS>SUBSTRUCTURE
     1 JJS         1 TEMP              0 ****  ****    0 ROOT
