@<TRIPOS>MOLECULE
molecule
   47    49     1     0     0
SMALL
bcc


@<TRIPOS>ATOM
      1 C28          0.0000     0.0000     0.0000 c3         1 JJV      -0.232300
      2 S26          1.8140     0.0000     0.0000 sy         1 JJV       1.186300
      3 O27          2.3130     0.0000     1.3310 o          1 JJV      -0.608800
      4 O29          2.3130    -0.9130    -0.9690 o          1 JJV      -0.608800
      5 C4           2.2540     1.5850    -0.6300 ca         1 JJV      -0.283500
      6 C2           2.8880     2.4990     0.1870 ca         1 JJV       0.016000
      7 C1           3.2360     3.7540    -0.3140 ca         1 JJV      -0.027000
      8 C31          3.8930     4.7080     0.5280 cg         1 JJV       0.229800
      9 N30          4.4160     5.4770     1.1810 n1         1 JJV      -0.337800
     10 C3           2.9390     4.0770    -1.6400 ca         1 JJV      -0.036000
     11 C5           2.3060     3.1540    -2.4460 ca         1 JJV      -0.154000
     12 C6           1.9690     1.9090    -1.9440 ca         1 JJV      -0.010300
     13 C22          1.2830     0.9030    -2.8330 c3         1 JJV       0.146200
     14 C9           2.3200     0.3340    -3.7800 ce         1 JJV      -0.088900
     15 C11          2.0990     0.4650    -5.1040 c2         1 JJV       0.058400
     16 C25          3.1060    -0.0880    -6.0800 c3         1 JJV      -0.060900
     17 C24          3.9530     0.1670    -3.0160 cg         1 JJV       0.292500
     18 N32          4.8160    -0.2230    -2.8080 n1         1 JJV      -0.369800
     19 N7           0.1110     1.5580    -3.4390 ns         1 JJV      -0.467900
     20 C8           0.0290     1.6110    -4.7830 c          1 JJV       0.751500
     21 O23         -0.9350     2.1500    -5.2910 o          1 JJV      -0.621500
     22 N10          0.9750     1.0910    -5.5760 n          1 JJV      -0.292200
     23 C12          0.8060     1.1940    -6.9620 ca         1 JJV       0.028600
     24 C13         -0.1810     0.4530    -7.5990 ca         1 JJV      -0.055000
     25 C14          1.6220     2.0390    -7.7010 ca         1 JJV      -0.096000
     26 C16          1.4520     2.1370    -9.0690 ca         1 JJV      -0.128000
     27 C17          0.4720     1.3960    -9.7010 ca         1 JJV      -0.071000
     28 C15         -0.3460     0.5570    -8.9670 ca         1 JJV      -0.174300
     29 C18         -1.4170    -0.2470    -9.6590 c3         1 JJV       0.676200
     30 F20         -2.6040     0.4930    -9.6950 f          1 JJV      -0.219967
     31 F21         -1.0090    -0.5400   -10.9640 f          1 JJV      -0.219967
     32 F19         -1.6320    -1.4380    -8.9580 f          1 JJV      -0.219967
     33 H281        -0.3610    -1.0020    -0.1980 h1         1 JJV       0.107700
     34 H282        -0.3610     0.6730    -0.7690 h1         1 JJV       0.107700
     35 H283        -0.3610     0.3290     0.9670 h1         1 JJV       0.107700
     36 H2           3.1530     2.2260     1.2010 ha         1 JJV       0.178000
     37 H3           3.2070     5.0500    -2.0340 ha         1 JJV       0.151000
     38 H5           2.0760     3.4010    -3.4750 ha         1 JJV       0.140000
     39 H22          0.9230     0.0920    -2.2120 h1         1 JJV       0.090700
     40 H7          -0.0540     2.5440    -3.3980 hn         1 JJV       0.311500
     41 H251         2.5870    -0.5360    -6.9190 hc         1 JJV       0.064700
     42 H252         3.7120    -0.8390    -5.5880 hc         1 JJV       0.064700
     43 H253         3.7420     0.7130    -6.4360 hc         1 JJV       0.064700
     44 H13         -0.7580    -0.2740    -7.0410 ha         1 JJV       0.163000
     45 H14          2.4500     2.5480    -7.2230 ha         1 JJV       0.142000
     46 H16          2.0880     2.7970    -9.6480 ha         1 JJV       0.147000
     47 H17          0.3400     1.4750   -10.7730 ha         1 JJV       0.153000
@<TRIPOS>BOND
     1     1     2 1
     2     2     3 2
     3     2     4 2
     4     2     5 1
     5     5     6 ar
     6     5    12 ar
     7     6     7 ar
     8     7     8 1
     9     7    10 ar
    10     8     9 3
    11    10    11 ar
    12    11    12 ar
    13    12    13 1
    14    13    14 1
    15    13    19 1
    16    14    15 2
    17    14    17 1
    18    15    16 1
    19    15    22 1
    20    17    18 3
    21    19    20 1
    22    20    21 2
    23    20    22 1
    24    22    23 1
    25    23    24 ar
    26    23    25 ar
    27    24    28 ar
    28    25    26 ar
    29    26    27 ar
    30    27    28 ar
    31    28    29 1
    32    29    30 1
    33    29    31 1
    34    29    32 1
    35     1    33 1
    36     1    34 1
    37     1    35 1
    38     6    36 1
    39    10    37 1
    40    11    38 1
    41    13    39 1
    42    19    40 1
    43    16    41 1
    44    16    42 1
    45    16    43 1
    46    24    44 1
    47    25    45 1
    48    26    46 1
    49    27    47 1
@<TRIPOS>SUBSTRUCTURE
     1 JJV         1 TEMP              0 ****  ****    0 ROOT
