@<TRIPOS>MOLECULE
molecule
   69    72     1     0     0
SMALL
bcc


@<TRIPOS>ATOM
      1 C33          0.0000     0.0000     0.0000 c3         1 JJX       0.111500
      2 C34          1.5320     0.0000     0.0000 c3         1 JJX       0.128800
      3 N35          2.0190     0.0000     1.3860 n3         1 JJX      -0.688600
      4 C38          3.4770     0.1720     1.4320 c3         1 JJX      -0.067500
      5 C40          3.9310     0.2920     2.8880 c3         1 JJX      -0.112600
      6 C39          4.1540    -1.0370     0.7840 c3         1 JJX      -0.112600
      7 C36          1.6110    -1.2210     2.0940 c3         1 JJX       0.128800
      8 C37          0.0820    -1.2710     2.1800 c3         1 JJX       0.111500
      9 N31         -0.4680    -1.1250     0.8230 n          1 JJX      -0.488800
     10 C30         -1.3750    -2.0010     0.3480 c          1 JJX       0.651100
     11 O32         -1.8180    -1.8660    -0.7730 o          1 JJX      -0.605100
     12 C29         -1.8400    -3.1470     1.2080 c3         1 JJX      -0.001000
     13 N12         -2.8200    -3.9470     0.4690 n          1 JJX      -0.454800
     14 C11         -2.4250    -4.9840    -0.2970 c          1 JJX       0.832500
     15 O21         -1.2410    -5.2470    -0.3650 o          1 JJX      -0.656500
     16 C7          -4.2580    -3.6410     0.5490 c3         1 JJX       0.200200
     17 C3          -4.6690    -3.7200     1.9960 ca         1 JJX      -0.088300
     18 C2          -5.5550    -2.7900     2.5120 ca         1 JJX      -0.119000
     19 C1          -5.9350    -2.8560     3.8370 ca         1 JJX      -0.090000
     20 C6          -5.4250    -3.8640     4.6570 ca         1 JJX      -0.017000
     21 C19         -5.8160    -3.9390     6.0320 cg         1 JJX       0.236800
     22 N20         -6.1110    -4.0110     7.1270 n1         1 JJX      -0.357800
     23 C5          -4.5310    -4.7990     4.1300 ca         1 JJX      -0.090000
     24 C4          -4.1620    -4.7240     2.8020 ca         1 JJX      -0.119000
     25 C8          -5.1940    -4.5240    -0.2510 ce         1 JJX      -0.102900
     26 C27         -6.6090    -4.3040    -0.2370 cg         1 JJX       0.209500
     27 N28         -7.8960    -4.4790    -0.5350 n1         1 JJX      -0.380800
     28 C9          -4.6510    -5.5210    -0.9760 c2         1 JJX       0.107400
     29 C22         -5.5470    -6.4220    -1.7860 c3         1 JJX      -0.075900
     30 N10         -3.2960    -5.7340    -0.9840 n          1 JJX      -0.275200
     31 C13         -2.7960    -6.7910    -1.7540 ca         1 JJX       0.036600
     32 C18         -2.4210    -6.5750    -3.0740 ca         1 JJX      -0.061000
     33 C14         -2.6690    -8.0580    -1.1970 ca         1 JJX      -0.088000
     34 C15         -2.1750    -9.0990    -1.9590 ca         1 JJX      -0.128000
     35 C16         -1.8070    -8.8810    -3.2740 ca         1 JJX      -0.069000
     36 C17         -1.9280    -7.6200    -3.8290 ca         1 JJX      -0.175300
     37 C23         -1.5220    -7.3870    -5.2620 c3         1 JJX       0.675200
     38 F25         -0.1710    -7.0220    -5.3090 f          1 JJX      -0.220300
     39 F26         -1.7140    -8.5600    -5.9990 f          1 JJX      -0.220300
     40 F24         -2.3010    -6.3600    -5.8070 f          1 JJX      -0.220300
     41 H331        -0.3500    -0.1000    -1.0200 h1         1 JJX       0.060700
     42 H332        -0.3500     0.9420     0.4060 h1         1 JJX       0.060700
     43 H341         1.8820     0.8830    -0.5220 h1         1 JJX       0.042700
     44 H342         1.8820    -0.8830    -0.5210 h1         1 JJX       0.042700
     45 H38          3.9000    -0.0770     0.4660 h1         1 JJX       0.261700
     46 H361         1.8930    -1.1320     3.1360 h1         1 JJX       0.042700
     47 H362         2.1250    -2.0680     1.6560 h1         1 JJX       0.042700
     48 H401         5.0140     0.2690     2.9320 hc         1 JJX       0.046367
     49 H402         3.5290    -0.5340     3.4610 hc         1 JJX       0.046367
     50 H403         3.5730     1.2270     3.3020 hc         1 JJX       0.046367
     51 H391         5.2290    -0.9410     0.8760 hc         1 JJX       0.046367
     52 H392         3.8840    -1.0830    -0.2640 hc         1 JJX       0.046367
     53 H393         3.8280    -1.9430     1.2810 hc         1 JJX       0.046367
     54 H371        -0.2130    -2.2190     2.6140 h1         1 JJX       0.060700
     55 H372        -0.2580    -0.4650     2.8210 h1         1 JJX       0.060700
     56 H291        -1.1990    -4.0050     1.0430 h1         1 JJX       0.109700
     57 H292        -1.7940    -2.8570     2.2510 h1         1 JJX       0.109700
     58 H7          -4.3970    -2.6210     0.2110 h1         1 JJX       0.083700
     59 H2          -5.8890    -1.9620     1.8990 ha         1 JJX       0.143000
     60 H4          -3.4110    -5.4020     2.4150 ha         1 JJX       0.143000
     61 H1          -6.6290    -2.1270     4.2380 ha         1 JJX       0.145000
     62 H5          -4.1320    -5.5830     4.7620 ha         1 JJX       0.145000
     63 H221        -5.6190    -6.0450    -2.7990 hc         1 JJX       0.070367
     64 H222        -6.5340    -6.4470    -1.3400 hc         1 JJX       0.070367
     65 H223        -5.1340    -7.4230    -1.8020 hc         1 JJX       0.070367
     66 H18         -2.4360    -5.5730    -3.4840 ha         1 JJX       0.166000
     67 H14         -2.8770    -8.2100    -0.1450 ha         1 JJX       0.147000
     68 H15         -2.0760   -10.0870    -1.5260 ha         1 JJX       0.147000
     69 H16         -1.4200    -9.6980    -3.8710 ha         1 JJX       0.153000
@<TRIPOS>BOND
     1     1     2 1
     2     1     9 1
     3     2     3 1
     4     3     4 1
     5     3     7 1
     6     4     5 1
     7     4     6 1
     8     7     8 1
     9     8     9 1
    10     9    10 1
    11    10    11 2
    12    10    12 1
    13    12    13 1
    14    13    14 1
    15    13    16 1
    16    14    15 2
    17    14    30 1
    18    16    17 1
    19    16    25 1
    20    17    18 ar
    21    17    24 ar
    22    18    19 ar
    23    19    20 ar
    24    20    21 1
    25    20    23 ar
    26    21    22 3
    27    23    24 ar
    28    25    26 1
    29    25    28 2
    30    26    27 3
    31    28    29 1
    32    28    30 1
    33    30    31 1
    34    31    32 ar
    35    31    33 ar
    36    32    36 ar
    37    33    34 ar
    38    34    35 ar
    39    35    36 ar
    40    36    37 1
    41    37    38 1
    42    37    39 1
    43    37    40 1
    44     1    41 1
    45     1    42 1
    46     2    43 1
    47     2    44 1
    48     4    45 1
    49     7    46 1
    50     7    47 1
    51     5    48 1
    52     5    49 1
    53     5    50 1
    54     6    51 1
    55     6    52 1
    56     6    53 1
    57     8    54 1
    58     8    55 1
    59    12    56 1
    60    12    57 1
    61    16    58 1
    62    18    59 1
    63    24    60 1
    64    19    61 1
    65    23    62 1
    66    29    63 1
    67    29    64 1
    68    29    65 1
    69    32    66 1
    70    33    67 1
    71    34    68 1
    72    35    69 1
@<TRIPOS>SUBSTRUCTURE
     1 JJX         1 TEMP              0 ****  ****    0 ROOT
