@<TRIPOS>MOLECULE
JJX
   69    73     1     0     0
SMALL
bcc


@<TRIPOS>ATOM
      1 C33          0.0000     0.0000     0.0000 c3         1 JJX      -0.061500
      2 C34          1.5320     0.0000     0.0000 c3         1 JJX      -0.129000
      3 N35          2.0190     0.0000     1.3860 n3         1 JJX      -0.016000
      4 C38          3.4770     0.1720     1.4320 c3         1 JJX      -0.308000
      5 C40          3.9310     0.2920     2.8880 c3         1 JJX      -0.039000
      6 C39          4.1540    -1.0370     0.7840 DU         1 JJX      -0.251000
      7 C36          1.6110    -1.2210     2.0940 c3         1 JJX      -0.129000
      8 C37          0.0820    -1.2710     2.1800 c3         1 JJX      -0.061500
      9 N31         -0.4680    -1.1250     0.8230 n          1 JJX      -0.003000
     10 C30         -1.3750    -2.0010     0.3480 c2         1 JJX       0.229000
     11 O32         -1.8180    -1.8660    -0.7730 o          1 JJX      -0.415000
     12 C29         -1.8400    -3.1470     1.2080 c3         1 JJX      -0.171000
     13 N12         -2.8200    -3.9470     0.4690 n          1 JJX       0.058000
     14 C11         -2.4250    -4.9840    -0.2970 c2         1 JJX       0.203000
     15 O21         -1.2410    -5.2470    -0.3650 o          1 JJX      -0.434000
     16 C7          -4.2580    -3.6410     0.5490 c3         1 JJX       0.045000
     17 C3          -4.6690    -3.7200     1.9960 ca         1 JJX      -0.100000
     18 C2          -5.5550    -2.7900     2.5120 ca         1 JJX      -0.089500
     19 C1          -5.9350    -2.8560     3.8370 ca         1 JJX      -0.068000
     20 C6          -5.4250    -3.8640     4.6570 ca         1 JJX       0.037000
     21 C19         -5.8160    -3.9390     6.0320 c1         1 JJX      -0.104000
     22 N20         -6.1110    -4.0110     7.1270 n1         1 JJX      -0.046000
     23 C5          -4.5310    -4.7990     4.1300 ca         1 JJX      -0.068000
     24 C4          -4.1620    -4.7240     2.8020 ca         1 JJX      -0.089500
     25 C8          -5.1940    -4.5240    -0.2510 c2         1 JJX      -0.117000
     26 C27         -6.6090    -4.3040    -0.2370 c1         1 JJX      -0.031000
     27 N28         -7.8960    -4.4790    -0.5350 n1         1 JJX      -0.115000
     28 C9          -4.6510    -5.5210    -0.9760 c2         1 JJX      -0.057000
     29 C22         -5.5470    -6.4220    -1.7860 c3         1 JJX      -0.098000
     30 N10         -3.2960    -5.7340    -0.9840 n          1 JJX       0.236000
     31 C13         -2.7960    -6.7910    -1.7540 ca         1 JJX      -0.109000
     32 C18         -2.4210    -6.5750    -3.0740 ca         1 JJX      -0.014000
     33 C14         -2.6690    -8.0580    -1.1970 ca         1 JJX      -0.046000
     34 C15         -2.1750    -9.0990    -1.9590 ca         1 JJX      -0.101000
     35 C16         -1.8070    -8.8810    -3.2740 ca         1 JJX      -0.022000
     36 C17         -1.9280    -7.6200    -3.8290 ca         1 JJX      -0.198000
     37 C23         -1.5220    -7.3870    -5.2620 c3         1 JJX       0.420000
     38 F25         -0.1710    -7.0220    -5.3090 f          1 JJX      -0.134000
     39 F26         -1.7140    -8.5600    -5.9990 f          1 JJX      -0.134000
     40 F24         -2.3010    -6.3600    -5.8070 f          1 JJX      -0.134000
     41 H331        -0.3500    -0.1000    -1.0200 h1         1 JJX       0.073750
     42 H332        -0.3500     0.9420     0.4060 h1         1 JJX       0.073750
     43 H341         1.8820     0.8830    -0.5220 h1         1 JJX       0.062750
     44 H342         1.8820    -0.8830    -0.5210 h1         1 JJX       0.062750
     45 H38          3.9000    -0.0770     0.4660 DU         1 JJX       0.270000
     46 H361         1.8930    -1.1320     3.1360 h1         1 JJX       0.062750
     47 H362         2.1250    -2.0680     1.6560 h1         1 JJX       0.062750
     48 H401         5.0140     0.2690     2.9320 hc         1 JJX       0.043333
     49 H402         3.5290    -0.5340     3.4610 hc         1 JJX       0.043333
     50 H403         3.5730     1.2270     3.3020 hc         1 JJX       0.043333
     51 H391         5.2290    -0.9410     0.8760 ha         1 JJX       0.070333
     52 H392         3.8840    -1.0830    -0.2640 ha         1 JJX       0.070333
     53 H393         3.8280    -1.9430     1.2810 ha         1 JJX       0.070333
     54 H371        -0.2130    -2.2190     2.6140 h1         1 JJX       0.073750
     55 H372        -0.2580    -0.4650     2.8210 h1         1 JJX       0.073750
     56 H291        -1.1990    -4.0050     1.0430 h1         1 JJX       0.125000
     57 H292        -1.7940    -2.8570     2.2510 h1         1 JJX       0.125000
     58 H7          -4.3970    -2.6210     0.2110 h1         1 JJX       0.094000
     59 H2          -5.8890    -1.9620     1.8990 ha         1 JJX       0.115000
     60 H4          -3.4110    -5.4020     2.4150 ha         1 JJX       0.115000
     61 H1          -6.6290    -2.1270     4.2380 ha         1 JJX       0.116500
     62 H5          -4.1320    -5.5830     4.7620 ha         1 JJX       0.116500
     63 H221        -5.6190    -6.0450    -2.7990 hc         1 JJX       0.074000
     64 H222        -6.5340    -6.4470    -1.3400 hc         1 JJX       0.074000
     65 H223        -5.1340    -7.4230    -1.8020 hc         1 JJX       0.074000
     66 H18         -2.4360    -5.5730    -3.4840 ha         1 JJX       0.132000
     67 H14         -2.8770    -8.2100    -0.1450 ha         1 JJX       0.113000
     68 H15         -2.0760   -10.0870    -1.5260 ha         1 JJX       0.116000
     69 H16         -1.4200    -9.6980    -3.8710 ha         1 JJX       0.121000
@<TRIPOS>BOND
     1     1     2 1   
     2     1     9 1   
     3     1    41 1   
     4     1    42 1   
     5     2     3 1   
     6     2    43 1   
     7     2    44 1   
     8     3     4 1   
     9     3     7 1   
    10     4     5 1   
    11     4     6 1   
    12     4    45 1   
    13     5    48 1   
    14     5    49 1   
    15     5    50 1   
    16     6    45 1   
    17     6    51 1   
    18     6    52 1   
    19     6    53 1   
    20     7     8 1   
    21     7    46 1   
    22     7    47 1   
    23     8     9 1   
    24     8    54 1   
    25     8    55 1   
    26     9    10 1   
    27    10    11 1   
    28    10    12 1   
    29    12    13 1   
    30    12    56 1   
    31    12    57 1   
    32    13    14 1   
    33    13    16 1   
    34    14    15 1   
    35    14    30 1   
    36    16    17 1   
    37    16    25 1   
    38    16    58 1   
    39    17    18 1   
    40    17    24 1   
    41    18    19 1   
    42    18    59 1   
    43    19    20 1   
    44    19    61 1   
    45    20    21 1   
    46    20    23 1   
    47    21    22 1   
    48    23    24 1   
    49    23    62 1   
    50    24    60 1   
    51    25    26 1   
    52    25    28 1   
    53    26    27 1   
    54    28    29 1   
    55    28    30 1   
    56    29    63 1   
    57    29    64 1   
    58    29    65 1   
    59    30    31 1   
    60    31    32 1   
    61    31    33 1   
    62    32    36 1   
    63    32    66 1   
    64    33    34 1   
    65    33    67 1   
    66    34    35 1   
    67    34    68 1   
    68    35    36 1   
    69    35    69 1   
    70    36    37 1   
    71    37    38 1   
    72    37    39 1   
    73    37    40 1   
@<TRIPOS>SUBSTRUCTURE
     1 JJX         1 TEMP              0 ****  ****    0 ROOT
