@<TRIPOS>MOLECULE
molecule
   29    31     1     0     0
SMALL
bcc


@<TRIPOS>ATOM
      1 C10          0.0000     0.0000     0.0000 c3         1 JJY      -0.079400
      2 C15          1.8530     0.4610     3.7640 ca         1 JJY       0.024000
      3 O01          3.2660     0.5330     6.1970 o          1 JJY      -0.517100
      4 C02          3.7760    -0.0390     5.2590 c          1 JJY       0.584200
      5 C03          5.0770    -0.7990     5.4180 c3         1 JJY      -0.176900
      6 C04          5.9440    -0.4800     4.1920 c3         1 JJY      -0.079400
      7 C05          5.2630    -1.0140     2.9350 c3         1 JJY      -0.135700
      8 C06          3.8610    -0.4780     2.8050 ca         1 JJY       0.502600
      9 N07          3.2990    -0.4470     1.6100 nb         1 JJY      -0.725000
     10 C08          2.0730     0.0000     1.4040 ca         1 JJY       0.502600
     11 C09          1.5250     0.0000     0.0000 c3         1 JJY      -0.135700
     12 C11         -0.5100     1.1870     0.8300 c3         1 JJY      -0.176900
     13 C12         -0.0640     0.9610     2.2590 c          1 JJY       0.584200
     14 O13         -0.8070     1.1800     3.1920 o          1 JJY      -0.517100
     15 C14          1.3090     0.4670     2.4760 ca         1 JJY      -0.319900
     16 C16          3.1550    -0.0210     3.9220 ca         1 JJY      -0.319900
     17 H102        -0.3600     0.0910    -1.0180 hc         1 JJY       0.055450
     18 H101        -0.3600    -0.9250     0.4350 hc         1 JJY       0.055450
     19 H151         1.2050     0.5640     4.6260 ha         1 JJY       0.179000
     20 H032         4.8780    -1.8630     5.4600 hc         1 JJY       0.073950
     21 H031         5.5840    -0.4770     6.3200 hc         1 JJY       0.073950
     22 H042         6.9130    -0.9520     4.3040 hc         1 JJY       0.055450
     23 H041         6.0670     0.5930     4.1070 hc         1 JJY       0.055450
     24 H052         5.8380    -0.7140     2.0670 hc         1 JJY       0.070950
     25 H051         5.2250    -2.0950     2.9860 hc         1 JJY       0.070950
     26 H091         1.8790     0.8840    -0.5170 hc         1 JJY       0.070950
     27 H092         1.8780    -0.8840    -0.5170 hc         1 JJY       0.070950
     28 H111        -1.5920     1.2280     0.7850 hc         1 JJY       0.073950
     29 H112        -0.0840     2.1090     0.4530 hc         1 JJY       0.073950
@<TRIPOS>BOND
     1     1    12 1
     2     1    11 1
     3    12    13 1
     4    14    13 2
     5    13    15 1
     6    11    10 1
     7    15    10 ar
     8    15     2 ar
     9    10     9 ar
    10     9     8 ar
    11     2    16 ar
    12     8    16 ar
    13     8     7 1
    14    16     4 1
    15     7     6 1
    16     4     3 2
    17     4     5 1
    18     5     6 1
    19     1    17 1
    20     1    18 1
    21     2    19 1
    22     5    20 1
    23     5    21 1
    24     6    22 1
    25     6    23 1
    26     7    24 1
    27     7    25 1
    28    11    26 1
    29    11    27 1
    30    12    28 1
    31    12    29 1
@<TRIPOS>SUBSTRUCTURE
     1 JJY         1 TEMP              0 ****  ****    0 ROOT
