@<TRIPOS>MOLECULE
JJZ
   51    55     1     0     0
SMALL
bcc


@<TRIPOS>ATOM
      1 CAA          0.0000     0.0000     0.0000 ca         1 JJZ      -0.113000
      2 CAB          1.3820     0.0000     0.0000 ca         1 JJZ      -0.071000
      3 CAC          2.0750     0.0000     1.1940 ca         1 JJZ      -0.103000
      4 OAD          3.6770     1.2930     2.7710 o          1 JJZ      -0.400000
      5 OAE          5.7610     0.5960     7.0190 o          1 JJZ      -0.380000
      6 CAG         -0.6950     0.0010     1.1980 ca         1 JJZ      -0.094000
      7 CAH         -0.0070     0.0020     2.3960 ca         1 JJZ      -0.132000
      8 CAI          1.3810     0.0010     2.3980 ca         1 JJZ      -0.071000
      9 NAJ          2.0810     0.0010     3.6100 ns         1 JJZ       0.113000
     10 CAK          3.2640     0.6400     3.7050 c2         1 JJZ       0.202000
     11 CAL          4.0750     0.5390     4.9720 c3         1 JJZ      -0.113000
     12 CAM          5.3630     1.3490     4.8180 c3         1 JJZ      -0.111000
     13 CAN          6.1740     1.2500     6.0840 c2         1 JJZ       0.214000
     14 NAO          7.3570     1.8890     6.1800 ns         1 JJZ       0.091000
     15 NAP          8.1100     1.7960     7.3570 n2         1 JJZ      -0.005000
     16 CAQ          9.2540     2.4120     7.4490 c2         1 JJZ      -0.468000
     17 CAR          8.0920    -0.1240    10.6400 ca         1 JJZ      -0.068500
     18 CAS          8.4610     0.6880     9.6140 ca         1 JJZ      -0.134500
     19 CAT          9.6290     1.4620     9.7260 ca         1 JJZ       0.023000
     20 CAU         10.0400     2.3160     8.6820 c3         1 JJZ      -0.116000
     21 CAV         11.2190     3.0750     8.8360 ca         1 JJZ       0.023000
     22 CAW         11.6650     3.9380     7.8210 ca         1 JJZ      -0.134500
     23 CAX         12.8050     4.6560     8.0010 ca         1 JJZ      -0.068500
     24 CAY          8.8450    -0.2140    11.8090 ca         1 JJZ      -0.106000
     25 CAZ          9.9830     0.5070    11.9810 ca         1 JJZ      -0.080500
     26 CBA         10.4220     1.3700    10.9540 ca         1 JJZ      -0.070500
     27 CBB         11.5870     2.1240    11.0980 c2         1 JJZ      -0.008000
     28 CBC         12.0010     2.9720    10.0700 ca         1 JJZ      -0.070500
     29 CBD         13.1760     3.7450    10.1940 ca         1 JJZ      -0.080500
     30 CBE         13.5510     4.5600     9.1750 ca         1 JJZ      -0.106000
     31 HAA         -0.5410    -0.0000    -0.9390 ha         1 JJZ       0.115000
     32 HAB          1.9230    -0.0010    -0.9390 ha         1 JJZ       0.107000
     33 HAC          3.1580    -0.0000     1.1930 ha         1 JJZ       0.140000
     34 HAH         -0.5510     0.0030     3.3330 ha         1 JJZ       0.117000
     35 HNAJ         1.7180    -0.5000     4.3970 hn         1 JJZ       0.085000
     36 HAL          4.3210    -0.4990     5.1620 hc         1 JJZ       0.084000
     37 HALA         3.4990     0.9310     5.8010 hc         1 JJZ       0.084000
     38 HAM          5.9400     0.9570     3.9890 hc         1 JJZ       0.085500
     39 HAMA         5.1170     2.3870     4.6270 hc         1 JJZ       0.085500
     40 HNAO         7.6940     2.4350     5.4120 hn         1 JJZ       0.087000
     41 HAQ          9.8600     1.5570     7.7220 DU         1 JJZ       0.334000
     42 HAR          7.1900    -0.7180    10.5450 ha         1 JJZ       0.104500
     43 HAS          7.8580     0.7390     8.7160 ha         1 JJZ       0.166000
     44 HAW         11.1030     4.0310     6.8990 ha         1 JJZ       0.166000
     45 HAX         13.1420     5.3190     7.2140 ha         1 JJZ       0.104500
     46 HAY          8.5130    -0.8740    12.6020 ha         1 JJZ       0.102000
     47 HAZ         10.5510     0.4200    12.9000 ha         1 JJZ       0.106500
     48 HBB         12.1650     2.0570    12.0110 ha         1 JJZ       0.108000
     49 HBD         13.7740     3.6880    11.0960 ha         1 JJZ       0.106500
     50 HBE         14.4540     5.1510     9.2760 ha         1 JJZ       0.102000
     51 ClAF        -2.4310     0.0010     1.1940 cl         1 JJZ       0.050000
@<TRIPOS>BOND
     1     1     2 1   
     2     1     6 1   
     3     1    31 1   
     4     2     3 1   
     5     2    32 1   
     6     3     8 1   
     7     3    33 1   
     8     4    10 1   
     9     5    13 1   
    10     6     7 1   
    11     6    51 1   
    12     7     8 1   
    13     7    34 1   
    14     8     9 1   
    15     9    10 1   
    16     9    35 1   
    17    10    11 1   
    18    11    12 1   
    19    11    36 1   
    20    11    37 1   
    21    12    13 1   
    22    12    38 1   
    23    12    39 1   
    24    13    14 1   
    25    14    15 1   
    26    14    40 1   
    27    15    16 1   
    28    16    20 1   
    29    16    41 1   
    30    17    18 1   
    31    17    24 1   
    32    17    42 1   
    33    18    19 1   
    34    18    43 1   
    35    19    20 1   
    36    19    26 1   
    37    20    21 1   
    38    20    41 1   
    39    21    22 1   
    40    21    28 1   
    41    22    23 1   
    42    22    44 1   
    43    23    30 1   
    44    23    45 1   
    45    24    25 1   
    46    24    46 1   
    47    25    26 1   
    48    25    47 1   
    49    26    27 1   
    50    27    28 1   
    51    27    48 1   
    52    28    29 1   
    53    29    30 1   
    54    29    49 1   
    55    30    50 1   
@<TRIPOS>SUBSTRUCTURE
     1 JJZ         1 TEMP              0 ****  ****    0 ROOT
