@<TRIPOS>MOLECULE
molecule
   51    54     1     0     0
SMALL
bcc


@<TRIPOS>ATOM
      1 CAA          0.0000     0.0000     0.0000 ca         1 JJZ      -0.138000
      2 CAB          1.3820     0.0000     0.0000 ca         1 JJZ      -0.103000
      3 CAC          2.0750     0.0000     1.1940 ca         1 JJZ      -0.128000
      4 OAD          3.6770     1.2930     2.7710 o          1 JJZ      -0.600100
      5 OAE          5.7610     0.5960     7.0190 o          1 JJZ      -0.578100
      6 CAG         -0.6950     0.0010     1.1980 ca         1 JJZ       0.045400
      7 CAH         -0.0070     0.0020     2.3960 ca         1 JJZ      -0.157000
      8 CAI          1.3810     0.0010     2.3980 ca         1 JJZ       0.065600
      9 NAJ          2.0810     0.0010     3.6100 ns         1 JJZ      -0.476100
     10 CAK          3.2640     0.6400     3.7050 c          1 JJZ       0.658100
     11 CAL          4.0750     0.5390     4.9720 c3         1 JJZ      -0.142400
     12 CAM          5.3630     1.3490     4.8180 c3         1 JJZ      -0.140400
     13 CAN          6.1740     1.2500     6.0840 c          1 JJZ       0.673100
     14 NAO          7.3570     1.8890     6.1800 ns         1 JJZ      -0.357900
     15 NAP          8.1100     1.7960     7.3570 n2         1 JJZ      -0.429300
     16 CAQ          9.2540     2.4120     7.4490 ce         1 JJZ       0.408800
     17 CAR          8.0920    -0.1240    10.6400 ca         1 JJZ      -0.115000
     18 CAS          8.4610     0.6880     9.6140 ca         1 JJZ      -0.132000
     19 CAT          9.6290     1.4620     9.7260 ca         1 JJZ      -0.000500
     20 CAU         10.0400     2.3160     8.6820 ca         1 JJZ      -0.127900
     21 CAV         11.2190     3.0750     8.8360 ca         1 JJZ      -0.000500
     22 CAW         11.6650     3.9380     7.8210 ca         1 JJZ      -0.132000
     23 CAX         12.8050     4.6560     8.0010 ca         1 JJZ      -0.115000
     24 CAY          8.8450    -0.2140    11.8090 ca         1 JJZ      -0.128000
     25 CAZ          9.9830     0.5070    11.9810 ca         1 JJZ      -0.115500
     26 CBA         10.4220     1.3700    10.9540 ca         1 JJZ      -0.045000
     27 CBB         11.5870     2.1240    11.0980 ca         1 JJZ      -0.081000
     28 CBC         12.0010     2.9720    10.0700 ca         1 JJZ      -0.045000
     29 CBD         13.1760     3.7450    10.1940 ca         1 JJZ      -0.115500
     30 CBE         13.5510     4.5600     9.1750 ca         1 JJZ      -0.128000
     31 HAA         -0.5410    -0.0000    -0.9390 ha         1 JJZ       0.144000
     32 HAB          1.9230    -0.0010    -0.9390 ha         1 JJZ       0.141000
     33 HAC          3.1580    -0.0000     1.1930 ha         1 JJZ       0.162000
     34 HAH         -0.5510     0.0030     3.3330 ha         1 JJZ       0.144000
     35 HNAJ         1.7180    -0.5000     4.3970 hn         1 JJZ       0.329500
     36 HAL          3.4990     0.9310     5.8010 hc         1 JJZ       0.081700
     37 HALA         4.3210    -0.4990     5.1620 hc         1 JJZ       0.081700
     38 HAM          5.1170     2.3870     4.6270 hc         1 JJZ       0.078700
     39 HAMA         5.9400     0.9570     3.9890 hc         1 JJZ       0.078700
     40 HNAO         7.6970     2.4300     5.4100 hn         1 JJZ       0.300500
     41 HAQ          9.6220     2.9970     6.6150 h4         1 JJZ      -0.007200
     42 HAR          7.1900    -0.7180    10.5450 ha         1 JJZ       0.131500
     43 HAS          7.8580     0.7390     8.7160 ha         1 JJZ       0.166000
     44 HAW         11.1030     4.0310     6.8990 ha         1 JJZ       0.166000
     45 HAX         13.1420     5.3190     7.2140 ha         1 JJZ       0.131500
     46 HAY          8.5130    -0.8740    12.6020 ha         1 JJZ       0.127500
     47 HAZ         10.5510     0.4200    12.9000 ha         1 JJZ       0.133000
     48 HBB         12.1690     2.0530    12.0090 ha         1 JJZ       0.137000
     49 HBD         13.7740     3.6880    11.0960 ha         1 JJZ       0.133000
     50 HBE         14.4540     5.1510     9.2760 ha         1 JJZ       0.127500
     51 ClAF        -2.4310     0.0010     1.1940 cl         1 JJZ      -0.107400
@<TRIPOS>BOND
     1     1     2 ar
     2     1     6 ar
     3     2     3 ar
     4     3     8 ar
     5     4    10 2
     6     5    13 2
     7    51     6 1
     8     6     7 ar
     9     7     8 ar
    10     8     9 1
    11     9    10 1
    12    10    11 1
    13    11    12 1
    14    12    13 1
    15    13    14 1
    16    14    15 1
    17    15    16 2
    18    16    20 1
    19    17    18 ar
    20    17    24 ar
    21    18    19 ar
    22    19    20 ar
    23    19    26 ar
    24    20    21 ar
    25    21    22 ar
    26    21    28 ar
    27    22    23 ar
    28    23    30 ar
    29    24    25 ar
    30    25    26 ar
    31    26    27 ar
    32    27    28 ar
    33    28    29 ar
    34    29    30 ar
    35     1    31 1
    36     2    32 1
    37     3    33 1
    38     7    34 1
    39     9    35 1
    40    11    36 1
    41    11    37 1
    42    12    38 1
    43    12    39 1
    44    14    40 1
    45    16    41 1
    46    17    42 1
    47    18    43 1
    48    22    44 1
    49    23    45 1
    50    24    46 1
    51    25    47 1
    52    27    48 1
    53    29    49 1
    54    30    50 1
@<TRIPOS>SUBSTRUCTURE
     1 JJZ         1 TEMP              0 ****  ****    0 ROOT
