@<TRIPOS>MOLECULE
JK1
   61    64     1     0     0
SMALL
bcc


@<TRIPOS>ATOM
      1 O1           0.0000     0.0000     0.0000 o          1 JK1      -0.691100
      2 N2           1.8890     0.0010    -1.1670 ns         1 JK1      -0.048100
      3 C3          -6.3980    -2.2040    13.3100 c3         1 JK1       0.249700
      4 O4          -3.1770    -2.0080    14.3020 os         1 JK1      -0.291900
      5 C5          -0.7360     0.4060    -3.7090 ca         1 JK1      -0.084000
      6 C6           1.0550    -0.8870    -4.6360 ca         1 JK1      -0.084000
      7 C7           2.2420     0.1040     7.8790 ca         1 JK1      -0.085000
      8 C8          -0.0510     0.5040    -2.5140 ca         1 JK1      -0.118500
      9 C10          1.1290    -0.0010     8.6870 ca         1 JK1      -0.096000
     10 C11          2.1060     0.1040     6.5030 ca         1 JK1      -0.109000
     11 C15         -2.1940    -1.1210    12.3260 ca         1 JK1      -0.264000
     12 C16          1.7360    -0.0010     3.6280 cc         1 JK1      -0.319300
     13 C17          1.2160     0.0000     0.0000 c          1 JK1       0.552100
     14 C19          1.1940    -0.0960    -2.3760 ca         1 JK1      -0.081400
     15 C20         -2.3210    -0.4210    11.1340 ca         1 JK1      -0.016400
     16 C22         -0.1410    -0.1070     8.1140 ca         1 JK1      -0.142600
     17 C23          0.8490    -0.0010     5.9240 ca         1 JK1      -0.139200
     18 C24         -4.6690    -0.1240    11.5560 ca         1 JK1       0.181600
     19 C25         -3.3020    -1.3220    13.1340 ca         1 JK1       0.181600
     20 C26         -4.5420    -0.8240    12.7510 ca         1 JK1       0.030100
     21 C1          -5.9380     1.0740     9.9410 c3         1 JK1       0.238700
     22 N1          -0.4890    -0.0000     3.8140 nc         1 JK1      -0.642800
     23 C2          -1.8740    -2.4920    14.6330 c3         1 JK1       0.238700
     24 O2          -2.4400    -0.3100     8.4770 o          1 JK1      -0.627100
     25 N3           1.8890     0.0000     1.1670 ns         1 JK1       0.000900
     26 O3          -5.8810     0.3650    11.1800 os         1 JK1      -0.291900
     27 C4          -0.1840    -0.2880    -4.7690 ca         1 JK1      -0.114000
     28 N4          -1.2020    -0.2180    10.3180 ns         1 JK1      -0.032100
     29 N5           0.7160    -0.0000     4.5290 na         1 JK1       0.622300
     30 O5          -5.6300    -1.0210    13.5430 os         1 JK1      -0.309900
     31 C9           1.7450    -0.7930    -3.4440 ca         1 JK1      -0.118500
     32 C12         -0.2090    -0.0000     2.5350 cd         1 JK1       0.405200
     33 C13         -0.2770    -0.1060     6.7270 ca         1 JK1      -0.028000
     34 C14         -3.5590     0.0770    10.7500 ca         1 JK1      -0.264000
     35 C21          1.1860     0.0000     2.3860 cd         1 JK1      -0.284700
     36 HN2          2.8850     0.1020    -1.1700 hn         1 JK1       0.159500
     37 H3          -6.2510    -2.8970    14.1290 h1         1 JK1      -0.009633
     38 H3A         -7.4470    -1.9450    13.2390 h1         1 JK1      -0.009633
     39 H3B         -6.0770    -2.6660    12.3840 h1         1 JK1      -0.009633
     40 H5          -1.7070     0.8740    -3.8160 ha         1 JK1       0.102500
     41 H6           1.4860    -1.4310    -5.4690 ha         1 JK1       0.102500
     42 H7           3.2260     0.1860     8.3240 ha         1 JK1       0.108000
     43 H8          -0.4850     1.0480    -1.6830 ha         1 JK1       0.125000
     44 H10          1.2390     0.0000     9.7640 ha         1 JK1       0.103000
     45 H11          2.9850     0.1860     5.8740 ha         1 JK1       0.113000
     46 H15         -1.2270    -1.5050    12.6280 ha         1 JK1       0.146500
     47 H16          2.7890    -0.1150     3.8580 h4         1 JK1       0.150000
     48 H1          -6.9450     1.4400     9.7810 h1         1 JK1      -0.000633
     49 H1A         -5.6610     0.4100     9.1310 h1         1 JK1      -0.000633
     50 H1B         -5.2500     1.9110     9.9720 h1         1 JK1      -0.000633
     51 H2          -1.1900    -1.6570    14.7200 h1         1 JK1      -0.000633
     52 H2A         -1.5290    -3.1630    13.8550 h1         1 JK1      -0.000633
     53 H2B         -1.9160    -3.0240    15.5760 h1         1 JK1      -0.000633
     54 HN3          2.8900    -0.0040     1.1670 hn         1 JK1       0.153500
     55 H4          -0.7230    -0.3640    -5.7060 ha         1 JK1       0.102000
     56 HN4         -0.2900    -0.1780    10.7260 hn         1 JK1       0.171500
     57 H9           2.7160    -1.2630    -3.3400 ha         1 JK1       0.125000
     58 H12         -0.9320    -0.0000     1.7290 h4         1 JK1       0.062100
     59 H13         -1.2590    -0.1890     6.2770 ha         1 JK1       0.159000
     60 H14         -3.6580     0.6230     9.8190 ha         1 JK1       0.146500
     61 C18         -1.3360    -0.2190     8.9770 c          1 JK1       0.584700
@<TRIPOS>BOND
     1     1    13 2   
     2     2    13 1   
     3     2    14 1   
     4     2    36 1   
     5     3    30 1   
     6     3    37 1   
     7     3    38 1   
     8     3    39 1   
     9     4    19 1   
    10     4    23 1   
    11     5     8 ar  
    12     5    27 ar  
    13     5    40 1   
    14     6    27 ar  
    15     6    31 ar  
    16     6    41 1   
    17     7     9 ar  
    18     7    10 ar  
    19     7    42 1   
    20     8    14 ar  
    21     8    43 1   
    22     9    16 ar  
    23     9    44 1   
    24    10    17 ar  
    25    10    45 1   
    26    11    15 ar  
    27    11    19 ar  
    28    11    46 1   
    29    12    29 1   
    30    12    35 2   
    31    12    47 1   
    32    13    25 1   
    33    14    31 ar  
    34    15    28 1   
    35    15    34 ar  
    36    16    33 ar  
    37    16    61 1   
    38    17    29 1   
    39    17    33 ar  
    40    18    20 ar  
    41    18    26 1   
    42    18    34 ar  
    43    19    20 ar  
    44    20    30 1   
    45    21    26 1   
    46    21    48 1   
    47    21    49 1   
    48    21    50 1   
    49    22    29 1   
    50    22    32 2   
    51    23    51 1   
    52    23    52 1   
    53    23    53 1   
    54    24    61 2   
    55    25    35 1   
    56    25    54 1   
    57    27    55 1   
    58    28    56 1   
    59    28    61 1   
    60    31    57 1   
    61    32    35 1   
    62    32    58 1   
    63    33    59 1   
    64    34    60 1   
@<TRIPOS>SUBSTRUCTURE
     1 JK1         1 TEMP              0 ****  ****    0 ROOT
