@<TRIPOS>MOLECULE
JK2
   63    67     1     0     0
SMALL
bcc


@<TRIPOS>ATOM
      1 C12          0.0000     0.0000     0.0000 ca         1 JK2      -0.104000
      2 C13          3.5090     0.0010    -0.8870 cc         1 JK2       0.449800
      3 C14          3.5460    -3.5560     8.5770 ca         1 JK2      -0.222500
      4 C16          2.9360    -0.9150     3.0700 ca         1 JK2      -0.037000
      5 C18          3.5910    -1.9340     5.2870 c          1 JK2       0.630700
      6 C26         -0.0050     0.0010    -2.4000 ca         1 JK2      -0.031400
      7 C27          4.1850    -2.9160     7.5270 ca         1 JK2       0.002600
      8 C31         -0.6210    -1.1500    -4.4960 ca         1 JK2       0.031600
      9 C35          2.0880     0.0000    -1.2230 ca         1 JK2      -0.252900
     10 C36          1.3910     0.0000     0.0000 ca         1 JK2      -0.181200
     11 C28         -1.3750    -1.0620    -5.6540 ca         1 JK2       0.028900
     12 C07         -1.3480    -2.0940    -6.5790 ca         1 JK2      -0.089000
     13 C04         -0.5660    -3.2130    -6.3440 ca         1 JK2      -0.125000
     14 C10          0.1600    -2.2690    -4.2610 ca         1 JK2      -0.139000
     15 C05          0.1880    -3.3010    -5.1850 ca         1 JK2      -0.069000
     16 N21         -0.7250    -0.0130    -3.5990 nu         1 JK2      -0.286000
     17 C11         -0.6840    -0.0000    -1.1820 ca         1 JK2      -0.066000
     18 C17          1.3770    -0.0000    -2.4270 ca         1 JK2      -0.031000
     19 N37          2.3400     0.0000     0.9950 na         1 JK2       0.610800
     20 N19          3.6120     0.0010     0.4120 nd         1 JK2      -0.640100
     21 C30          2.2230     0.0000     2.3120 ca         1 JK2      -0.143200
     22 C09          1.3430     0.8740     2.9290 ca         1 JK2      -0.102000
     23 C06          1.1760     0.8330     4.3040 ca         1 JK2      -0.090000
     24 C29          2.7680    -0.9560     4.4450 ca         1 JK2      -0.143600
     25 C08          1.8880    -0.0820     5.0620 ca         1 JK2      -0.084000
     26 O22          4.3700    -2.6560     4.7630 o          1 JK2      -0.576100
     27 N20          3.4040    -1.9870     6.7280 ns         1 JK2      -0.156100
     28 C15          5.5310    -3.1480     7.2910 ca         1 JK2      -0.222500
     29 C33          6.2370    -4.0190     8.1050 ca         1 JK2       0.156100
     30 O24          7.6040    -4.2240     7.8900 os         1 JK2      -0.296400
     31 C02          8.1100    -3.5460     6.7750 c3         1 JK2       0.237700
     32 C34          5.5980    -4.6590     9.1550 ca         1 JK2       0.045100
     33 O25          6.2880    -5.6070     9.9200 os         1 JK2      -0.302900
     34 C03          6.9390    -5.0700    11.0350 c3         1 JK2       0.248700
     35 C32          4.2530    -4.4270     9.3920 ca         1 JK2       0.156100
     36 O23          3.6260    -5.0130    10.4970 os         1 JK2      -0.296400
     37 C01          2.3130    -5.4290    10.2500 c3         1 JK2       0.237700
     38 H12         -0.5420    -0.0000     0.9380 ha         1 JK2       0.111000
     39 H13          4.3300     0.0020    -1.5940 h4         1 JK2       0.016800
     40 H16          3.6220    -1.6010     2.5880 ha         1 JK2       0.143000
     41 H07         -1.9370    -2.0250    -7.4850 ha         1 JK2       0.116000
     42 H04         -0.5450    -4.0200    -7.0660 ha         1 JK2       0.108000
     43 H10          0.7500    -2.3380    -3.3550 ha         1 JK2       0.123000
     44 H05          0.7990    -4.1770    -5.0010 ha         1 JK2       0.105000
     45 HN21        -1.2860     0.7760    -3.8550 hn         1 JK2       0.305800
     46 H11         -1.7680     0.0110    -1.1810 ha         1 JK2       0.111000
     47 H17          1.9000     0.0140    -3.3760 ha         1 JK2       0.116000
     48 H09          0.7860     1.5900     2.3370 ha         1 JK2       0.117000
     49 H06          0.4880     1.5170     4.7860 ha         1 JK2       0.109000
     50 H08          1.7570    -0.1140     6.1370 ha         1 JK2       0.104000
     51 HN20         2.7380    -1.3850     7.1700 hn         1 JK2       0.183500
     52 H15          6.0300    -2.6480     6.4700 ha         1 JK2       0.136500
     53 H02          9.1650    -3.7650     6.6680 h1         1 JK2      -0.003800
     54 H02A         7.5820    -3.8680     5.8860 h1         1 JK2      -0.003800
     55 H02B         7.9740    -2.4790     6.9090 h1         1 JK2      -0.003800
     56 H03          6.6420    -4.0360    11.1640 h1         1 JK2      -0.010633
     57 H03A         6.6690    -5.6360    11.9180 h1         1 JK2      -0.010633
     58 H03B         8.0110    -5.1220    10.8870 h1         1 JK2      -0.010633
     59 H01          2.0030    -6.1220    11.0230 h1         1 JK2      -0.003800
     60 H01A         1.6560    -4.5680    10.2510 h1         1 JK2      -0.003800
     61 H01B         2.2650    -5.9180     9.2850 h1         1 JK2      -0.003800
     62 F38         -2.1620     0.0310    -5.8750 f          1 JK2      -0.134900
     63 H14          2.4940    -3.3740     8.7620 ha         1 JK2       0.136500
@<TRIPOS>BOND
     1     1    10 ar  
     2     1    17 ar  
     3     1    38 1   
     4     2     9 1   
     5     2    20 2   
     6     2    39 1   
     7     3     7 ar  
     8     3    35 ar  
     9     3    63 1   
    10     4    21 ar  
    11     4    24 ar  
    12     4    40 1   
    13     5    24 1   
    14     5    26 2   
    15     5    27 1   
    16     6    16 1   
    17     6    17 ar  
    18     6    18 ar  
    19     7    27 1   
    20     7    28 ar  
    21     8    11 ar  
    22     8    14 ar  
    23     8    16 1   
    24     9    10 ar  
    25     9    18 ar  
    26    10    19 1   
    27    11    12 ar  
    28    11    62 1   
    29    12    13 ar  
    30    12    41 1   
    31    13    15 ar  
    32    13    42 1   
    33    14    15 ar  
    34    14    43 1   
    35    15    44 1   
    36    16    45 1   
    37    17    46 1   
    38    18    47 1   
    39    19    20 1   
    40    19    21 1   
    41    21    22 ar  
    42    22    23 ar  
    43    22    48 1   
    44    23    25 ar  
    45    23    49 1   
    46    24    25 ar  
    47    25    50 1   
    48    27    51 1   
    49    28    29 ar  
    50    28    52 1   
    51    29    30 1   
    52    29    32 ar  
    53    30    31 1   
    54    31    53 1   
    55    31    54 1   
    56    31    55 1   
    57    32    33 1   
    58    32    35 ar  
    59    33    34 1   
    60    34    56 1   
    61    34    57 1   
    62    34    58 1   
    63    35    36 1   
    64    36    37 1   
    65    37    59 1   
    66    37    60 1   
    67    37    61 1   
@<TRIPOS>SUBSTRUCTURE
     1 JK2         1 TEMP              0 ****  ****    0 ROOT
