@<TRIPOS>MOLECULE
JK3
   42    44     1     0     0
SMALL
bcc


@<TRIPOS>ATOM
      1 CL15       -0.1050   -0.4240    0.4620 cl        1 JK3     -0.091400
      2 C01         8.3470    1.5630   -1.5040 cc        1 JK3     -0.176300
      3 C02         8.7460    1.5260   -2.8880 cc        1 JK3     -0.227300
      4 C03         7.6770    1.0060   -3.6020 cd        1 JK3      0.290900
      5 O05         6.6180    0.7110   -2.7320 os        1 JK3     -0.341800
      6 C06         7.0570    1.0630   -1.4490 cd        1 JK3      0.192200
      7 C07         6.1570    0.8750   -0.2910 c         1 JK3      0.599600
      8 O08         6.5560    1.2130    0.8410 o         1 JK3     -0.583100
      9 C10         3.8890    0.1190    0.3930 ca        1 JK3      0.093600
     10 C11         4.1630    0.0320    1.7740 ca        1 JK3     -0.154000
     11 C12         3.1430   -0.1820    2.6920 ca        1 JK3     -0.099000
     12 C13         1.8280   -0.3220    2.2690 ca        1 JK3     -0.147000
     13 C14         1.5320   -0.2440    0.9060 ca        1 JK3      0.018400
     14 C16         2.5310   -0.0220   -0.0640 ca        1 JK3      0.065600
     15 N17         2.2830    0.0680   -1.4660 nh        1 JK3     -0.662000
     16 C18         1.5360    1.2420   -1.8890 c3        1 JK3      0.183300
     17 C19         1.4790    1.3620   -3.4260 c3        1 JK3      0.164800
     18 C20         1.8370   -1.1630   -2.1000 c3        1 JK3      0.183300
     19 C21         1.7800   -1.0300   -3.6360 c3        1 JK3      0.164800
     20 N22         1.0290    0.1390   -4.0740 n3        1 JK3     -0.722600
     21 C23         1.0120    0.2420   -5.5320 c3        1 JK3      0.248900
     22 C24         0.1980    1.3200   -6.0410 c1        1 JK3     -0.141100
     23 C25        -0.4760    2.1940   -6.5020 c1        1 JK3     -0.145500
     24 H01         8.9440    1.9160   -0.6650 ha        1 JK3      0.186000
     25 H02         9.7070    1.8490   -3.2830 ha        1 JK3      0.178000
     26 HN09        4.6790    0.1600   -1.5040 hn        1 JK3      0.349500
     27 H11         5.1980    0.1390    2.1420 ha        1 JK3      0.174000
     28 H12         3.3850   -0.2420    3.7650 ha        1 JK3      0.143000
     29 H13         1.0230   -0.4920    3.0010 ha        1 JK3      0.150000
     30 H18         0.4810    1.2420   -1.4910 h1        1 JK3      0.048450
     31 H18A        2.0610    2.1530   -1.4880 h1        1 JK3      0.048450
     32 H19         0.7410    2.1750   -3.6800 h1        1 JK3      0.040450
     33 H19A        2.4940    1.6840   -3.8030 h1        1 JK3      0.040450
     34 H20         0.8220   -1.4900   -1.7320 h1        1 JK3      0.048450
     35 H20A        2.5770   -1.9720   -1.8480 h1        1 JK3      0.048450
     36 H21         1.2600   -1.9450   -4.0360 h1        1 JK3      0.040450
     37 H21A        2.8350   -1.0260   -4.0400 h1        1 JK3      0.040450
     38 H23         0.5960   -0.7340   -5.9270 h1        1 JK3      0.050700
     39 H23A        2.0580    0.3630   -5.9540 h1        1 JK3      0.050700
     40 H25        -1.0710    2.9680   -6.9140 ha        1 JK3      0.165500
     41 N09         4.9200    0.3040   -0.5440 n         1 JK3     -0.446100
     42 BR04        7.4580    0.6690   -5.3980 br        1 JK3     -0.073200
@<TRIPOS>BOND
     1    1   13 1
     2    2    3 1
     3    2    6 2
     4    2   24 1
     5    3    4 2
     6    3   25 1
     7    4    5 1
     8    4   42 1
     9    5    6 1
    10    6    7 1
    11    7    8 2
    12    7   41 1
    13    9   10 ar
    14    9   14 ar
    15    9   41 1
    16   10   11 ar
    17   10   27 1
    18   11   12 ar
    19   11   28 1
    20   12   13 ar
    21   12   29 1
    22   13   14 ar
    23   14   15 1
    24   15   16 1
    25   15   18 1
    26   16   17 1
    27   16   30 1
    28   16   31 1
    29   17   20 1
    30   17   32 1
    31   17   33 1
    32   18   19 1
    33   18   34 1
    34   18   35 1
    35   19   20 1
    36   19   36 1
    37   19   37 1
    38   20   21 1
    39   21   22 1
    40   21   38 1
    41   21   39 1
    42   22   23 3
    43   23   40 1
    44   26   41 1
@<TRIPOS>SUBSTRUCTURE
     1 JK3         1 TEMP              0 ****  ****    0 ROOT
