@<TRIPOS>MOLECULE
JK4
   56    58     1     0     0
SMALL
bcc


@<TRIPOS>ATOM
      1 N01          0.0000     0.0000     0.0000 nb         1 JK4      -0.636000
      2 C02          1.3240     0.0000     0.0000 ca         1 JK4       0.508200
      3 N02          2.0130     0.0020    -1.2080 nv         1 JK4      -0.574500
      4 C03          2.0320     0.0000     1.1970 ca         1 JK4      -0.288300
      5 C04          1.3340    -0.0000     2.3910 ca         1 JK4      -0.020300
      6 C05         -0.0540    -0.0010     2.3480 ca         1 JK4      -0.270300
      7 C06         -0.6920    -0.0000     1.1230 ca         1 JK4       0.416600
      8 C07          2.0630    -0.0020     3.7110 c3         1 JK4       0.061200
      9 C08         -2.1980    -0.0010     1.0690 c3         1 JK4      -0.066700
     10 O09         -4.7480    -0.0080     0.7310 os         1 JK4      -0.389600
     11 N1'         -3.5760     3.3650     0.6410 n7         1 JK4      -0.581200
     12 C10         -5.9690    -0.4950     0.1700 c3         1 JK4       0.210400
     13 C11         -6.4500    -1.7070     0.9700 c3         1 JK4       0.138800
     14 N12         -6.7890    -1.2880     2.3370 n7         1 JK4      -0.559200
     15 C13         -7.2560    -2.4290     3.1360 c3         1 JK4       0.085800
     16 C14         -7.5980    -1.9540     4.5500 c3         1 JK4       0.455900
     17 F15         -6.4600    -1.4010     5.1460 f          1 JK4      -0.209800
     18 F16         -8.6070    -0.9870     4.4850 f          1 JK4      -0.209800
     19 C2'         -4.7310     2.4320     0.6960 c3         1 JK4       0.106800
     20 C21         -8.0770    -3.1240     5.3710 ca         1 JK4      -0.184300
     21 C22         -8.4480    -2.9380     6.6900 ca         1 JK4       0.137900
     22 F22         -8.3800    -1.7070     7.2450 f          1 JK4      -0.104900
     23 C23         -8.8890    -4.0160     7.4440 ca         1 JK4       0.078900
     24 F23         -9.2510    -3.8360     8.7330 f          1 JK4      -0.111900
     25 C24         -8.9570    -5.2740     6.8740 ca         1 JK4      -0.088000
     26 C25         -8.5860    -5.4570     5.5560 ca         1 JK4      -0.091000
     27 C26         -8.1520    -4.3820     4.8020 ca         1 JK4      -0.067000
     28 C3'         -4.2100     1.1290     0.0530 c3         1 JK4       0.173100
     29 C4'         -2.6780     1.1810     0.2250 c3         1 JK4      -0.049700
     30 C5'         -2.4030     2.5120     0.9590 c3         1 JK4       0.137800
     31 HN02         1.6710    -0.5350    -1.9800 hn         1 JK4       0.270300
     32 HN0A         2.8430     0.5520    -1.3100 hn         1 JK4       0.270300
     33 H03          3.1150     0.0000     1.1950 ha         1 JK4       0.118000
     34 H05         -0.6310    -0.0010     3.2650 ha         1 JK4       0.122000
     35 H07          1.5910     0.7030     4.3850 hc         1 JK4       0.009700
     36 H07A         3.0960     0.2850     3.5530 hc         1 JK4       0.009700
     37 H07B         2.0260    -0.9940     4.1420 hc         1 JK4       0.009700
     38 H08         -2.5430    -0.9260     0.6240 hc         1 JK4       0.036700
     39 H08A        -2.5950     0.0870     2.0730 hc         1 JK4       0.036700
     40 HN1'        -3.6800     4.0670     1.3470 hn         1 JK4       0.252800
     41 H10         -6.7200     0.2840     0.2080 h1         1 JK4      -0.006300
     42 H10A        -5.8030    -0.7860    -0.8610 h1         1 JK4      -0.006300
     43 H11         -5.6630    -2.4520     1.0060 h1         1 JK4       0.013700
     44 H11A        -7.3260    -2.1300     0.4940 h1         1 JK4       0.013700
     45 HN12        -7.5040    -0.5890     2.3030 hn         1 JK4       0.263800
     46 H13         -8.1390    -2.8560     2.6750 h1         1 JK4       0.033700
     47 H13A        -6.4760    -3.1790     3.1860 h1         1 JK4       0.033700
     48 H2'         -5.5620     2.8270     0.1250 h1         1 JK4       0.019700
     49 H2'A        -5.0210     2.2540     1.7250 h1         1 JK4       0.019700
     50 H24         -9.2990    -6.1170     7.4620 ha         1 JK4       0.125000
     51 H25         -8.6430    -6.4430     5.1100 ha         1 JK4       0.115000
     52 H26         -7.8610    -4.5270     3.7690 ha         1 JK4       0.124000
     53 H3'         -4.4670     1.1030    -0.9990 h1         1 JK4       0.016700
     54 H4'         -2.1930     1.1810    -0.7440 hc         1 JK4       0.055700
     55 H5'         -1.4940     2.9670     0.5840 h1         1 JK4       0.016200
     56 H5'A        -2.3370     2.3460     2.0270 h1         1 JK4       0.016200
@<TRIPOS>BOND
     1     1     2 ar  
     2     1     7 ar  
     3     2     3 1   
     4     2     4 ar  
     5     3    31 1   
     6     3    32 1   
     7     4     5 ar  
     8     4    33 1   
     9     5     6 ar  
    10     5     8 1   
    11     6     7 ar  
    12     6    34 1   
    13     7     9 1   
    14     8    35 1   
    15     8    36 1   
    16     8    37 1   
    17     9    29 1   
    18     9    38 1   
    19     9    39 1   
    20    10    12 1   
    21    10    28 1   
    22    11    19 1   
    23    11    30 1   
    24    11    40 1   
    25    12    13 1   
    26    12    41 1   
    27    12    42 1   
    28    13    14 1   
    29    13    43 1   
    30    13    44 1   
    31    14    15 1   
    32    14    45 1   
    33    15    16 1   
    34    15    46 1   
    35    15    47 1   
    36    16    17 1   
    37    16    18 1   
    38    16    20 1   
    39    19    28 1   
    40    19    48 1   
    41    19    49 1   
    42    20    21 ar  
    43    20    27 ar  
    44    21    22 1   
    45    21    23 ar  
    46    23    24 1   
    47    23    25 ar  
    48    25    26 ar  
    49    25    50 1   
    50    26    27 ar  
    51    26    51 1   
    52    27    52 1   
    53    28    29 1   
    54    28    53 1   
    55    29    30 1   
    56    29    54 1   
    57    30    55 1   
    58    30    56 1   
@<TRIPOS>SUBSTRUCTURE
     1 JK4         1 TEMP              0 ****  ****    0 ROOT
