@<TRIPOS>MOLECULE
JK5
   56    58     1     0     0
SMALL
bcc


@<TRIPOS>ATOM
      1 N01          0.0000     0.0000     0.0000 nb         1 JK5      -0.637000
      2 C02          1.3240     0.0000     0.0000 ca         1 JK5       0.509200
      3 N02          2.0120    -0.0010    -1.2070 nv         1 JK5      -0.572500
      4 C03          2.0320     0.0000     1.1980 ca         1 JK5      -0.288300
      5 C04          1.3330     0.0010     2.3910 ca         1 JK5      -0.020300
      6 C05         -0.0550     0.0020     2.3480 ca         1 JK5      -0.271300
      7 C06         -0.6930     0.0020     1.1230 ca         1 JK5       0.417600
      8 C07          2.0630     0.0000     3.7110 c3         1 JK5       0.061200
      9 C08         -2.1990     0.0030     1.0690 c3         1 JK5      -0.066700
     10 O09         -4.7480    -0.0030     0.7310 os         1 JK5      -0.390600
     11 N1'         -3.5730     3.3690     0.6370 n7         1 JK5      -0.580200
     12 C10         -5.9690    -0.4890     0.1710 c3         1 JK5       0.210400
     13 C11         -6.4520    -1.6990     0.9730 c3         1 JK5       0.139800
     14 N12         -6.7900    -1.2790     2.3390 n7         1 JK5      -0.563200
     15 C13         -7.2580    -2.4180     3.1400 c3         1 JK5       0.095800
     16 C14         -7.6010    -1.9400     4.5520 c3         1 JK5       0.445900
     17 F15         -6.4620    -1.3880     5.1480 f          1 JK5      -0.213300
     18 F16         -8.6080    -0.9710     4.4870 f          1 JK5      -0.213300
     19 C2'         -4.7290     2.4380     0.6930 c3         1 JK5       0.107800
     20 C21         -8.0810    -3.1090     5.3750 ca         1 JK5      -0.139300
     21 C22         -7.1760    -3.8620     6.0980 ca         1 JK5      -0.095000
     22 C23         -7.6160    -4.9370     6.8530 ca         1 JK5       0.116900
     23 F23         -6.7320    -5.6730     7.5600 f          1 JK5      -0.119900
     24 C24         -8.9640    -5.2540     6.8830 ca         1 JK5      -0.115000
     25 C25         -9.8680    -4.4980     6.1590 ca         1 JK5      -0.019600
     26 Cl25       -11.5570    -4.8950     6.1970 cl         1 JK5      -0.002400
     27 C26         -9.4270    -3.4220     5.4090 ca         1 JK5      -0.078000
     28 C3'         -4.2090     1.1340     0.0510 c3         1 JK5       0.173100
     29 C4'         -2.6770     1.1850     0.2240 c3         1 JK5      -0.049700
     30 C5'         -2.4000     2.5150     0.9560 c3         1 JK5       0.137800
     31 HN02         2.8440     0.5450    -1.3090 hn         1 JK5       0.270300
     32 HN0A         1.6630    -0.5310    -1.9820 hn         1 JK5       0.270300
     33 H03          3.1150    -0.0010     1.1950 ha         1 JK5       0.119000
     34 H05         -0.6310     0.0030     3.2660 ha         1 JK5       0.121000
     35 H07          3.0950     0.2900     3.5530 hc         1 JK5       0.009367
     36 H07A         1.5900     0.7040     4.3850 hc         1 JK5       0.009367
     37 H07B         2.0280    -0.9930     4.1420 hc         1 JK5       0.009367
     38 H08         -2.5450    -0.9230     0.6250 hc         1 JK5       0.036700
     39 H08A        -2.5970     0.0920     2.0730 hc         1 JK5       0.036700
     40 HN1'        -3.6750     4.0720     1.3420 hn         1 JK5       0.252800
     41 H10         -6.7200     0.2910     0.2080 h1         1 JK5      -0.006300
     42 H10A        -5.8030    -0.7820    -0.8590 h1         1 JK5      -0.006300
     43 H11         -5.6660    -2.4450     1.0090 h1         1 JK5       0.014700
     44 H11A        -7.3290    -2.1220     0.4970 h1         1 JK5       0.014700
     45 HN12        -7.5060    -0.5790     2.3050 hn         1 JK5       0.261800
     46 H13         -8.1400    -2.8460     2.6790 h1         1 JK5       0.032700
     47 H13A        -6.4770    -3.1670     3.1920 h1         1 JK5       0.032700
     48 H2'         -5.0200     2.2610     1.7220 h1         1 JK5       0.019200
     49 H2'A        -5.5600     2.8340     0.1220 h1         1 JK5       0.019200
     50 H22         -6.1210    -3.6200     6.0640 ha         1 JK5       0.137000
     51 H24         -9.3100    -6.0940     7.4730 ha         1 JK5       0.132000
     52 H26        -10.1350    -2.8300     4.8420 ha         1 JK5       0.130000
     53 H3'         -4.4660     1.1070    -1.0010 h1         1 JK5       0.017700
     54 H4'         -2.1910     1.1830    -0.7450 hc         1 JK5       0.055700
     55 H5'         -1.4910     2.9680     0.5800 h1         1 JK5       0.016700
     56 H5'A        -2.3340     2.3500     2.0240 h1         1 JK5       0.016700
@<TRIPOS>BOND
     1     1     2 ar  
     2     1     7 ar  
     3     2     3 1   
     4     2     4 ar  
     5     3    31 1   
     6     3    32 1   
     7     4     5 ar  
     8     4    33 1   
     9     5     6 ar  
    10     5     8 1   
    11     6     7 ar  
    12     6    34 1   
    13     7     9 1   
    14     8    35 1   
    15     8    36 1   
    16     8    37 1   
    17     9    29 1   
    18     9    38 1   
    19     9    39 1   
    20    10    12 1   
    21    10    28 1   
    22    11    19 1   
    23    11    30 1   
    24    11    40 1   
    25    12    13 1   
    26    12    41 1   
    27    12    42 1   
    28    13    14 1   
    29    13    43 1   
    30    13    44 1   
    31    14    15 1   
    32    14    45 1   
    33    15    16 1   
    34    15    46 1   
    35    15    47 1   
    36    16    17 1   
    37    16    18 1   
    38    16    20 1   
    39    19    28 1   
    40    19    48 1   
    41    19    49 1   
    42    20    21 ar  
    43    20    27 ar  
    44    21    22 ar  
    45    21    50 1   
    46    22    23 1   
    47    22    24 ar  
    48    24    25 ar  
    49    24    51 1   
    50    25    26 1   
    51    25    27 ar  
    52    27    52 1   
    53    28    29 1   
    54    28    53 1   
    55    29    30 1   
    56    29    54 1   
    57    30    55 1   
    58    30    56 1   
@<TRIPOS>SUBSTRUCTURE
     1 JK5         1 TEMP              0 ****  ****    0 ROOT
