@<TRIPOS>MOLECULE
molecule
   36    39     1     0     0
SMALL
bcc


@<TRIPOS>ATOM
      1 C10          0.0000     0.0000     0.0000 cy         1 JK7      -0.079900
      2 C13          5.8910    -2.6220    -2.7920 c3         1 JK7       0.152400
      3 C15          7.0980    -0.2480    -2.6170 ca         1 JK7      -0.100000
      4 C17          7.2810     0.5860    -0.3750 ca         1 JK7      -0.124000
      5 O01          3.6800    -3.4770    -3.4590 oh         1 JK7      -0.576800
      6 C02          4.3410    -2.4530    -2.7150 c3         1 JK7       0.110100
      7 C03          4.0700    -2.6100    -1.1950 c3         1 JK7       0.092700
      8 N04          3.4820    -1.3900    -0.6360 ns         1 JK7      -0.581900
      9 C05          2.1430    -1.2550    -0.5750 c          1 JK7       0.666100
     10 O06          1.4230    -2.1430    -0.9800 o          1 JK7      -0.598100
     11 C07          1.5380     0.0000     0.0000 cy         1 JK7      -0.179700
     12 C08          1.4590     0.0000     1.5360 cy         1 JK7      -0.079900
     13 C09          0.0780     0.6590     1.3880 cy         1 JK7      -0.106400
     14 C11          5.5030    -2.8470    -0.6270 c3         1 JK7       0.165400
     15 O12          6.1290    -3.6140    -1.7340 os         1 JK7      -0.374600
     16 C14          6.4660    -1.3690    -2.1400 ca         1 JK7      -0.120300
     17 C16          7.5080     0.7350    -1.7300 ca         1 JK7      -0.122000
     18 C18          6.6230    -0.5370     0.1020 ca         1 JK7      -0.112000
     19 C19          6.2220    -1.5110    -0.7780 ca         1 JK7      -0.131300
     20 H101        -0.4240     0.6510    -0.7550 hc         1 JK7       0.063450
     21 H102        -0.4240    -0.9970     0.0270 hc         1 JK7       0.063450
     22 H131         6.2920    -2.8740    -3.7660 h1         1 JK7       0.108700
     23 H171         7.6030     1.3570     0.3150 ha         1 JK7       0.135000
     24 H011         3.3970    -3.1290    -4.2890 ho         1 JK7       0.404000
     25 H021         4.0440    -1.4700    -3.0600 h1         1 JK7       0.055700
     26 H031         3.4350    -3.4670    -1.0060 h1         1 JK7       0.118700
     27 H041         4.0740    -0.6720    -0.2700 hn         1 JK7       0.321500
     28 H071         1.9560     0.9170    -0.3970 hc         1 JK7       0.077700
     29 H082         1.4110    -0.9970     1.9580 hc         1 JK7       0.063450
     30 H081         2.1920     0.6510     1.9980 hc         1 JK7       0.063450
     31 H092        -0.6550     0.2680     2.0840 hc         1 JK7       0.056200
     32 H091         0.1260     1.7400     1.3410 hc         1 JK7       0.056200
     33 H111         5.5580    -3.3080     0.3520 h1         1 JK7       0.111700
     34 H161         8.0220     1.6140    -2.0990 ha         1 JK7       0.135000
     35 H181         6.4450    -0.6550     1.1640 ha         1 JK7       0.133000
     36 H151         7.2750    -0.1330    -3.6800 ha         1 JK7       0.134000
@<TRIPOS>BOND
     1     1    11 1
     2     1    13 1
     3    10     9 2
     4    11     9 1
     5    11    12 1
     6     9     8 1
     7    13    12 1
     8     8     7 1
     9     7    14 1
    10     7     6 1
    11    14    15 1
    12    14    19 1
    13    15     2 1
    14    18    19 ar
    15    18     4 ar
    16     5     6 1
    17    19    16 ar
    18     6     2 1
    19     2    16 1
    20     4    17 ar
    21    16     3 ar
    22    17     3 ar
    23     1    20 1
    24     1    21 1
    25     2    22 1
    26     3    36 1
    27     4    23 1
    28     5    24 1
    29     6    25 1
    30     7    26 1
    31     8    27 1
    32    11    28 1
    33    12    29 1
    34    12    30 1
    35    13    31 1
    36    13    32 1
    37    14    33 1
    38    17    34 1
    39    18    35 1
@<TRIPOS>SUBSTRUCTURE
     1 JK7         1 TEMP              0 ****  ****    0 ROOT
