@<TRIPOS>MOLECULE
JKA
   32    33     1     0     0
SMALL
bcc


@<TRIPOS>ATOM
      1 C10          0.0000     0.0000     0.0000 c3         1 JKA      -0.031400
      2 C13          1.4980    -1.1570     2.2540 c3         1 JKA      -0.071400
      3 C01         -1.4920    -3.2680    -2.1050 c3         1 JKA       0.008700
      4 S02         -0.9120    -3.7020    -0.4420 s6         1 JKA       0.960900
      5 O03         -1.9820    -3.6380     0.4910 o          1 JKA      -0.583800
      6 O04         -0.0510    -4.8300    -0.4940 o          1 JKA      -0.583800
      7 N05          0.0860    -2.4430    -0.0080 n3         1 JKA      -0.528500
      8 C06          1.5140    -2.5090    -0.3250 c3         1 JKA       0.196800
      9 C07          2.0410    -1.1700    -0.8260 c3         1 JKA       0.195100
     10 O08          3.4700    -1.1880    -0.8440 oh         1 JKA      -0.552800
     11 C09          1.5330     0.0000     0.0000 c3         1 JKA      -0.062700
     12 C11         -0.4740    -1.2800     0.6910 c3         1 JKA       0.214500
     13 C12         -0.0180    -1.2680     2.1470 c3         1 JKA      -0.028400
     14 C14          2.0450     0.0000     1.4300 c3         1 JKA       0.211100
     15 O15          3.4740    -0.0310     1.4480 oh         1 JKA      -0.561800
     16 H101        -0.3660     0.8650     0.5400 hc         1 JKA       0.019200
     17 H102        -0.3660     0.0230    -1.0190 hc         1 JKA       0.019200
     18 H131         1.7650    -1.0040     3.2930 hc         1 JKA       0.034700
     19 H132         1.9430    -2.0790     1.9030 hc         1 JKA       0.034700
     20 H011        -2.0510    -4.0970    -2.5210 h1         1 JKA       0.060367
     21 H012        -2.1300    -2.3940    -2.0480 h1         1 JKA       0.060367
     22 H013        -0.6400    -3.0520    -2.7390 h1         1 JKA       0.060367
     23 H062         2.0610    -2.7900     0.5680 h1         1 JKA       0.038700
     24 H061         1.6710    -3.2580    -1.0920 h1         1 JKA       0.038700
     25 H071         1.6910    -1.0360    -1.8420 h1         1 JKA      -0.017300
     26 H081         3.7730    -1.2650    -1.7330 ho         1 JKA       0.379000
     27 H091         1.8680     0.9140    -0.4750 hc         1 JKA       0.029700
     28 H111        -1.5560    -1.3270     0.6550 h1         1 JKA       0.046700
     29 H122        -0.4700    -0.4230     2.6520 hc         1 JKA       0.023700
     30 H121        -0.3390    -2.1860     2.6250 hc         1 JKA       0.023700
     31 H141         1.7210     0.9220     1.8980 h1         1 JKA      -0.013300
     32 H151         3.7970     0.6670     1.9940 ho         1 JKA       0.379000
@<TRIPOS>BOND
     1     1    11 1   
     2     1    12 1   
     3     1    16 1   
     4     1    17 1   
     5     2    13 1   
     6     2    14 1   
     7     2    18 1   
     8     2    19 1   
     9     3     4 1   
    10     3    20 1   
    11     3    21 1   
    12     3    22 1   
    13     4     5 2   
    14     4     6 2   
    15     4     7 1   
    16     7     8 1   
    17     7    12 1   
    18     8     9 1   
    19     8    23 1   
    20     8    24 1   
    21     9    10 1   
    22     9    11 1   
    23     9    25 1   
    24    10    26 1   
    25    11    14 1   
    26    11    27 1   
    27    12    13 1   
    28    12    28 1   
    29    13    29 1   
    30    13    30 1   
    31    14    15 1   
    32    14    31 1   
    33    15    32 1   
@<TRIPOS>SUBSTRUCTURE
     1 JKA         1 TEMP              0 ****  ****    0 ROOT
