@<TRIPOS>MOLECULE
molecule
   32    33     1     0     0
SMALL
bcc


@<TRIPOS>ATOM
      1 C10          0.0000     0.0000     0.0000 c3         1 JKA      -0.087400
      2 C13          1.4980    -1.1570     2.2540 c3         1 JKA      -0.103400
      3 C01         -1.4920    -3.2680    -2.1050 c3         1 JKA      -0.251300
      4 S02         -0.9120    -3.7020    -0.4420 s6         1 JKA       1.321900
      5 O03         -1.9820    -3.6380     0.4910 o          1 JKA      -0.625800
      6 O04         -0.0510    -4.8300    -0.4940 o          1 JKA      -0.625800
      7 N05          0.0860    -2.4430    -0.0080 n3         1 JKA      -0.806500
      8 C06          1.5140    -2.5090    -0.3250 c3         1 JKA       0.214800
      9 C07          2.0410    -1.1700    -0.8260 c3         1 JKA       0.154100
     10 O08          3.4700    -1.1880    -0.8440 oh         1 JKA      -0.571800
     11 C09          1.5330     0.0000     0.0000 c3         1 JKA      -0.070700
     12 C11         -0.4740    -1.2800     0.6910 c3         1 JKA       0.247500
     13 C12         -0.0180    -1.2680     2.1470 c3         1 JKA      -0.082400
     14 C14          2.0450     0.0000     1.4300 c3         1 JKA       0.165100
     15 O15          3.4740    -0.0310     1.4480 oh         1 JKA      -0.579800
     16 H101        -0.3660     0.8650     0.5400 hc         1 JKA       0.050200
     17 H102        -0.3660     0.0230    -1.0190 hc         1 JKA       0.050200
     18 H131         1.7650    -1.0040     3.2930 hc         1 JKA       0.058700
     19 H132         1.9430    -2.0790     1.9030 hc         1 JKA       0.058700
     20 H011        -2.0510    -4.0970    -2.5210 h1         1 JKA       0.095033
     21 H012        -2.1300    -2.3940    -2.0480 h1         1 JKA       0.095033
     22 H013        -0.6400    -3.0520    -2.7390 h1         1 JKA       0.095033
     23 H062         2.0610    -2.7900     0.5680 h1         1 JKA       0.067700
     24 H061         1.6710    -3.2580    -1.0920 h1         1 JKA       0.067700
     25 H071         1.6910    -1.0360    -1.8420 h1         1 JKA       0.017700
     26 H081         3.7730    -1.2650    -1.7330 ho         1 JKA       0.394000
     27 H091         1.8680     0.9140    -0.4750 hc         1 JKA       0.057700
     28 H111        -1.5560    -1.3270     0.6550 h1         1 JKA       0.072700
     29 H122        -0.4700    -0.4230     2.6520 hc         1 JKA       0.053700
     30 H121        -0.3390    -2.1860     2.6250 hc         1 JKA       0.053700
     31 H141         1.7210     0.9220     1.8980 h1         1 JKA       0.018700
     32 H151         3.7970     0.6670     1.9940 ho         1 JKA       0.393000
@<TRIPOS>BOND
     1     6     4 2
     2     8     7 1
     3     8     9 1
     4     7     4 1
     5     7    12 1
     6     4     5 2
     7     4     3 1
     8     2    13 1
     9     2    14 1
    10    15    14 1
    11    13    12 1
    12    10     9 1
    13     9    11 1
    14    14    11 1
    15    12     1 1
    16    11     1 1
    17     1    16 1
    18     1    17 1
    19     2    18 1
    20     2    19 1
    21     3    20 1
    22     3    21 1
    23     3    22 1
    24     8    23 1
    25     8    24 1
    26     9    25 1
    27    10    26 1
    28    11    27 1
    29    12    28 1
    30    13    29 1
    31    13    30 1
    32    14    31 1
    33    15    32 1
@<TRIPOS>SUBSTRUCTURE
     1 JKA         1 TEMP              0 ****  ****    0 ROOT
