@<TRIPOS>MOLECULE
JKE
   15    14     1     0     0
SMALL
bcc


@<TRIPOS>ATOM
      1 SD          0.3490   -1.1870    0.1030 s         1 JKE     -0.606000
      2 CZ          2.5330   -0.2280    1.2510 c2        1 JKE     -0.105000
      3 CD1         2.3770   -0.0580   -1.2040 c2        1 JKE     -0.229000
      4 OD1         0.5700    0.6080    2.5020 oh        1 JKE     -0.327000
      5 CD2         4.2730    0.9290   -2.4540 c1        1 JKE      0.049000
      6 OD2         2.5190    1.4210    3.0210 o         1 JKE     -0.387000
      7 CE1         1.8250   -0.4380   -0.0220 c2        1 JKE     -0.021000
      8 CE2         3.7070   -0.8110    1.5300 c2        1 JKE     -0.193000
      9 CG1         3.6520    0.5990   -1.3440 c2        1 JKE     -0.370000
     10 HSD         0.1370   -0.0120    1.8470 ho        1 JKE      0.294000
     11 HD1         1.8180   -0.2490   -2.1320 ha        1 JKE      0.133000
     12 HD2         4.1600    0.8560   -0.3860 ha        1 JKE      0.181000
     13 HE2         4.2110   -0.6710    2.4950 ha        1 JKE      0.114500
     14 HG1         4.2130   -1.4660    0.8100 ha        1 JKE      0.114500
     15 CG          1.9020    0.6400    2.2800 c2        1 JKE      0.351000
@<TRIPOS>BOND
     1    1    7 1   
     2    2    7 1   
     3    2    8 1   
     4    2   15 1   
     5    3    7 1   
     6    3    9 1   
     7    3   11 1   
     8    4   10 1   
     9    4   15 1   
    10    5    9 1   
    11    6   15 1   
    12    8   13 1   
    13    8   14 1   
    14    9   12 1   
@<TRIPOS>SUBSTRUCTURE
     1 JKE         1 TEMP              0 ****  ****    0 ROOT
