@<TRIPOS>MOLECULE
molecule
   15    15     1     0     0
SMALL
bcc


@<TRIPOS>ATOM
      1 SD           0.0000     0.0000     0.0000 sh         1 JKE      -0.263700
      2 CZ           2.4680     0.0000     1.2140 ca         1 JKE      -0.066600
      3 CD1          2.4610    -0.0000    -1.2020 ca         1 JKE      -0.147000
      4 OD1          0.5260     0.0010     2.5030 o          1 JKE      -0.816300
      5 CD2          4.5400     0.0050    -0.0020 ca         1 JKE      -0.157000
      6 OD2          2.4230     0.0000     3.6570 o          1 JKE      -0.816300
      7 CE1          1.7620     0.0000     0.0000 ca         1 JKE       0.048900
      8 CE2          3.8660     0.0050     1.1990 ca         1 JKE      -0.095000
      9 CG1          3.8400    -0.0010    -1.1990 ca         1 JKE      -0.158000
     10 HSD         -0.4430     1.0070    -0.7430 hs         1 JKE       0.126800
     11 HD1          1.9220    -0.0050    -2.1410 ha         1 JKE       0.110000
     12 HD2          5.6230     0.0070    -0.0110 ha         1 JKE       0.105000
     13 HE2          4.4180     0.0100     2.1310 ha         1 JKE       0.157000
     14 HG1          4.3800    -0.0010    -2.1380 ha         1 JKE       0.101000
     15 CG           1.7410     0.0010     2.4950 c          1 JKE       0.871200
@<TRIPOS>BOND
     1     1     7 1
     2     1    10 1
     3    15     2 1
     4    15     4 1
     5    15     6 1
     6     2     7 ar
     7     2     8 ar
     8     3     7 ar
     9     3     9 ar
    10     3    11 1
    11     5     8 ar
    12     5     9 ar
    13     5    12 1
    14     8    13 1
    15     9    14 1
@<TRIPOS>SUBSTRUCTURE
     1 JKE         1 TEMP              0 ****  ****    0 ROOT
