@<TRIPOS>MOLECULE
molecule
   58    62     1     0     0
SMALL
bcc


@<TRIPOS>ATOM
      1 CAA          0.0000     0.0000     0.0000 c3         1 JKF       0.121700
      2 CAB          4.0650     0.3920     3.6430 c3         1 JKF       0.015600
      3 CAC         -1.3140     4.1430     5.0780 c3         1 JKF       0.076300
      4 OAD          0.0710     6.4140     5.0040 o          1 JKF      -0.642500
      5 CAH          5.9190     5.3390     0.7400 ca         1 JKF      -0.064000
      6 CAI          4.7040     5.5900     0.1270 ca         1 JKF      -0.180500
      7 CAJ          5.9610     4.8810     2.0450 ca         1 JKF      -0.180500
      8 CAK          1.3730    -2.5400     4.0240 ca         1 JKF      -0.125500
      9 CAL          1.0570    -3.6030     1.9010 ca         1 JKF      -0.125500
     10 CAM          1.6870    -1.3560     3.3840 ca         1 JKF      -0.110000
     11 CAN          1.3610    -2.4160     1.2610 ca         1 JKF      -0.110000
     12 CAO          0.2860     0.9930     2.8250 ca         1 JKF      -0.075000
     13 CAP          4.2280     0.1230     0.0520 cc         1 JKF       0.347200
     14 CAQ         -0.2340     2.0350     3.5640 ca         1 JKF      -0.187000
     15 CAR          5.6260     0.3920     1.6730 cd         1 JKF       0.400400
     16 CAS          1.7410     5.7350     3.6320 cc         1 JKF      -0.209200
     17 CAT          2.1170     2.3530     2.1030 ca         1 JKF      -0.041000
     18 NAU          5.5200     0.2790     0.3780 nc         1 JKF      -0.702000
     19 OAV          1.4290     0.0000     0.0000 os         1 JKF      -0.402600
     20 CAW          1.0580    -3.6650     3.2830 ca         1 JKF       0.033400
     21 CAX          3.5230     5.3890     0.8160 ca         1 JKF       0.176900
     22 CAY          4.7900     4.6700     2.7460 ca         1 JKF       0.176900
     23 CAZ          1.6800    -1.2940     2.0030 ca         1 JKF      -0.116300
     24 CBA          1.4580     1.1550     2.1010 ca         1 JKF      -0.169300
     25 CBB          2.3000     4.7200     2.8830 cd         1 JKF       0.062600
     26 CBC          3.5580     4.9310     2.1370 ca         1 JKF      -0.151800
     27 CBD          3.5060     0.1400     1.1890 cd         1 JKF      -0.235900
     28 CBE          0.5490     5.5080     4.3430 c          1 JKF       0.697700
     29 CBF          1.6110     3.4190     2.8490 ca         1 JKF      -0.123800
     30 CBG          0.4240     3.2610     3.5840 ca         1 JKF       0.101600
     31 NBH          4.3930     0.3110     2.2170 na         1 JKF      -0.177900
     32 NBI         -0.0760     4.3190     4.3150 n          1 JKF      -0.335000
     33 CBJ          2.0100     0.0000     1.3060 c3         1 JKF       0.343700
     34 HAA         -0.3610    -0.5690     0.8480 h1         1 JKF       0.039033
     35 HAAA        -0.3610     1.0190     0.0690 h1         1 JKF       0.039033
     36 HAAB        -0.3610    -0.4500    -0.9170 h1         1 JKF       0.039033
     37 HAB          3.1320     0.9290     3.7690 h1         1 JKF       0.059700
     38 HABA         4.8560     0.9140     4.1660 h1         1 JKF       0.059700
     39 HABB         3.9630    -0.6080     4.0470 h1         1 JKF       0.059700
     40 HAC         -2.1170     3.8690     4.4050 h1         1 JKF       0.059033
     41 HACA        -1.1760     3.3610     5.8140 h1         1 JKF       0.059033
     42 HACB        -1.5640     5.0710     5.5790 h1         1 JKF       0.059033
     43 HAH          6.8410     5.5000     0.1950 ha         1 JKF       0.149000
     44 HAI          4.6790     5.9480    -0.8950 ha         1 JKF       0.154500
     45 HAJ          6.9170     4.6870     2.5180 ha         1 JKF       0.154500
     46 HAK          1.3780    -2.5880     5.1060 ha         1 JKF       0.146500
     47 HAL          0.8060    -4.4830     1.3200 ha         1 JKF       0.146500
     48 HAM          1.9350    -0.4760     3.9640 ha         1 JKF       0.150500
     49 HAN          1.3580    -2.3670     0.1790 ha         1 JKF       0.150500
     50 HAO         -0.2240     0.0380     2.8130 ha         1 JKF       0.147000
     51 HAP          3.8350     0.0040    -0.9500 h4         1 JKF       0.055100
     52 HAQ         -1.1490     1.8990     4.1260 ha         1 JKF       0.145000
     53 HAR          6.5500     0.5280     2.2220 h5         1 JKF       0.065100
     54 HAS          2.2040     6.7140     3.6510 ha         1 JKF       0.173000
     55 HAT          3.0310     2.4720     1.5350 ha         1 JKF       0.162000
     56 FAE          2.3380     5.6350     0.2160 f          1 JKF      -0.126900
     57 FAF          4.8330     4.2230     4.0210 f          1 JKF      -0.126900
     58 ClAG         0.6650    -5.1520     4.0870 cl         1 JKF      -0.105400
@<TRIPOS>BOND
     1     1    19 1
     2     1    34 1
     3     1    35 1
     4     1    36 1
     5    31     2 1
     6     2    37 1
     7     2    38 1
     8     2    39 1
     9     3    32 1
    10     3    40 1
    11     3    41 1
    12     3    42 1
    13     4    28 2
    14    21    56 1
    15    57    22 1
    16    58    20 1
    17     7     5 ar
    18     5     6 ar
    19     5    43 1
    20    21     6 ar
    21     6    44 1
    22    22     7 ar
    23     7    45 1
    24    20     8 ar
    25     8    10 ar
    26     8    46 1
    27     9    20 ar
    28     9    11 ar
    29     9    47 1
    30    23    10 ar
    31    10    48 1
    32    11    23 ar
    33    11    49 1
    34    14    12 ar
    35    12    24 ar
    36    12    50 1
    37    13    27 2
    38    13    18 1
    39    13    51 1
    40    14    30 ar
    41    14    52 1
    42    18    15 2
    43    31    15 1
    44    15    53 1
    45    28    16 1
    46    16    25 2
    47    16    54 1
    48    29    17 ar
    49    24    17 ar
    50    17    55 1
    51    33    19 1
    52    26    21 ar
    53    22    26 ar
    54    23    33 1
    55    24    33 1
    56    29    25 1
    57    25    26 1
    58    33    27 1
    59    27    31 1
    60    32    28 1
    61    30    29 ar
    62    32    30 1
@<TRIPOS>SUBSTRUCTURE
     1 JKF         1 TEMP              0 ****  ****    0 ROOT
