@<TRIPOS>MOLECULE
JKG
   28    29     1     0     0
SMALL
bcc


@<TRIPOS>ATOM
      1 C10          0.0000     0.0000     0.0000 ca         1 JKG      -0.066500
      2 C13          1.3900     0.0000     2.3940 ca         1 JKG      -0.139500
      3 C01          4.4010     4.8850    -3.5550 cc         1 JKG      -0.126000
      4 C02          4.4050     3.5890    -3.0670 cc         1 JKG      -0.108000
      5 C03          3.3420     2.8570    -3.4050 cd         1 JKG       0.005600
      6 S04          2.2530     3.8220    -4.3930 ss         1 JKG      -0.286800
      7 C05          3.3320     5.2070    -4.2850 cd         1 JKG       0.009900
      8 C06          3.1110     1.4240    -3.0030 c3         1 JKG       0.243100
      9 N07          2.3780     1.3850    -1.7300 n7         1 JKG      -0.583200
     10 C08          2.1340    -0.0000    -1.3060 c3         1 JKG       0.205100
     11 C09          1.3820     0.0000     0.0000 ca         1 JKG      -0.115300
     12 C11         -0.6920     0.0060     1.1960 ca         1 JKG      -0.139500
     13 C12          0.0020     0.0060     2.3980 ca         1 JKG       0.126100
     14 C14          2.0770     0.0000     1.1960 ca         1 JKG      -0.066500
     15 O15         -0.6750     0.0060     3.5750 oh         1 JKG      -0.501100
     16 H101        -0.5410    -0.0000    -0.9380 ha         1 JKG       0.106000
     17 H131         1.9340     0.0000     3.3310 ha         1 JKG       0.113500
     18 H021         5.2120     3.1980    -2.4590 ha         1 JKG       0.125000
     19 H051         3.1580     6.1730    -4.7450 h4         1 JKG       0.148000
     20 H062         2.5310     0.9230    -3.7690 h1         1 JKG       0.013200
     21 H061         4.0640     0.9230    -2.8870 h1         1 JKG       0.013200
     22 H071         1.5040     1.8610    -1.8330 hn         1 JKG       0.262800
     23 H081         3.0810    -0.5110    -1.1770 h1         1 JKG       0.009200
     24 H082         1.5480    -0.5110    -2.0600 h1         1 JKG       0.009200
     25 H111        -1.7750     0.0080     1.1950 ha         1 JKG       0.113500
     26 H141         3.1600    -0.0020     1.1920 ha         1 JKG       0.106000
     27 H151        -0.8300     0.8950     3.8490 ho         1 JKG       0.403000
     28 H011         5.2030     5.5850    -3.3540 ha         1 JKG       0.120000
@<TRIPOS>BOND
     1     1    11 ar  
     2     1    12 ar  
     3     1    16 1   
     4     2    13 ar  
     5     2    14 ar  
     6     2    17 1   
     7     3     4 1   
     8     3     7 2   
     9     3    28 1   
    10     4     5 2   
    11     4    18 1   
    12     5     6 1   
    13     5     8 1   
    14     6     7 1   
    15     7    19 1   
    16     8     9 1   
    17     8    20 1   
    18     8    21 1   
    19     9    10 1   
    20     9    22 1   
    21    10    11 1   
    22    10    23 1   
    23    10    24 1   
    24    11    14 ar  
    25    12    13 ar  
    26    12    25 1   
    27    13    15 1   
    28    14    26 1   
    29    15    27 1   
@<TRIPOS>SUBSTRUCTURE
     1 JKG         1 TEMP              0 ****  ****    0 ROOT
