@<TRIPOS>MOLECULE
JKJ
   35    36     1     0     0
SMALL
bcc


@<TRIPOS>ATOM
      1 C01          0.0000     0.0000     0.0000 c3         1 JKJ       0.248700
      2 O02          1.4290     0.0000     0.0000 os         1 JKJ      -0.399600
      3 C03          2.0100     0.0000     1.3060 c3         1 JKJ       0.164400
      4 C04          3.5350    -0.0000     1.1860 c3         1 JKJ       0.229500
      5 N05          3.9980     1.2840     0.6210 n3         1 JKJ      -0.545500
      6 C06          4.8990     2.0770     1.4810 c3         1 JKJ       0.215500
      7 C07          6.1330     1.2210     1.7900 c3         1 JKJ      -0.032400
      8 C08          5.6950    -0.0940     2.4350 c3         1 JKJ      -0.053900
      9 C09          4.1720    -0.1260     2.5790 c3         1 JKJ       0.166800
     10 O10          3.7570    -1.3500     3.1880 oh         1 JKJ      -0.583800
     11 C11          3.7230     1.0580     3.4400 c3         1 JKJ      -0.053900
     12 C12          4.1640     2.3710     2.7940 c3         1 JKJ      -0.032400
     13 S13          3.5330     1.8010    -0.8820 s6         1 JKJ       0.972900
     14 O14          4.5880     2.6580    -1.2980 o          1 JKJ      -0.577300
     15 O15          3.2410     0.6040    -1.5890 o          1 JKJ      -0.577300
     16 C16          2.0190     2.7530    -0.5850 c3         1 JKJ       0.000700
     17 H013        -0.3610     0.8050     0.6290 h1         1 JKJ      -0.013300
     18 H011        -0.3610     0.1420    -1.0110 h1         1 JKJ      -0.013300
     19 H012        -0.3610    -0.9470     0.3830 h1         1 JKJ      -0.013300
     20 H031         1.6900     0.8840     1.8430 h1         1 JKJ       0.008700
     21 H032         1.6900    -0.8850     1.8430 h1         1 JKJ       0.008700
     22 H041         3.8580    -0.8200     0.5550 h1         1 JKJ       0.061700
     23 H061         5.1860     2.9990     0.9880 h1         1 JKJ       0.058700
     24 H072         6.7830     1.7580     2.4700 hc         1 JKJ       0.020700
     25 H071         6.6670     1.0120     0.8700 hc         1 JKJ       0.020700
     26 H082         6.0150    -0.9220     1.8130 hc         1 JKJ       0.022200
     27 H081         6.1510    -0.1830     3.4140 hc         1 JKJ       0.022200
     28 H101         4.3550    -1.5750     3.8810 ho         1 JKJ       0.397000
     29 H112         2.6440     1.0470     3.5320 hc         1 JKJ       0.022200
     30 H111         4.1680     0.9750     4.4240 hc         1 JKJ       0.022200
     31 H122         4.8270     2.9000     3.4680 hc         1 JKJ       0.020700
     32 H121         3.2930     2.9830     2.5910 hc         1 JKJ       0.020700
     33 H162         1.6820     2.5890     0.4310 h1         1 JKJ       0.064033
     34 H163         1.2490     2.4320    -1.2770 h1         1 JKJ       0.064033
     35 H161         2.2200     3.8080    -0.7330 h1         1 JKJ       0.064033
@<TRIPOS>BOND
     1     1     2 1   
     2     1    17 1   
     3     1    18 1   
     4     1    19 1   
     5     2     3 1   
     6     3     4 1   
     7     3    20 1   
     8     3    21 1   
     9     4     5 1   
    10     4     9 1   
    11     4    22 1   
    12     5     6 1   
    13     5    13 1   
    14     6     7 1   
    15     6    12 1   
    16     6    23 1   
    17     7     8 1   
    18     7    24 1   
    19     7    25 1   
    20     8     9 1   
    21     8    26 1   
    22     8    27 1   
    23     9    10 1   
    24     9    11 1   
    25    10    28 1   
    26    11    12 1   
    27    11    29 1   
    28    11    30 1   
    29    12    31 1   
    30    12    32 1   
    31    13    14 2   
    32    13    15 2   
    33    13    16 1   
    34    16    33 1   
    35    16    34 1   
    36    16    35 1   
@<TRIPOS>SUBSTRUCTURE
     1 JKJ         1 TEMP              0 ****  ****    0 ROOT
