@<TRIPOS>MOLECULE
molecule
   35    36     1     0     0
SMALL
bcc


@<TRIPOS>ATOM
      1 C01          0.0000     0.0000     0.0000 c3         1 JKJ       0.128700
      2 O02          1.4290     0.0000     0.0000 os         1 JKJ      -0.425600
      3 C03          2.0100     0.0000     1.3060 c3         1 JKJ       0.104400
      4 C04          3.5350    -0.0000     1.1860 c3         1 JKJ       0.276500
      5 N05          3.9980     1.2840     0.6210 n3         1 JKJ      -0.816500
      6 C06          4.8990     2.0770     1.4810 c3         1 JKJ       0.242500
      7 C07          6.1330     1.2210     1.7900 c3         1 JKJ      -0.085900
      8 C08          5.6950    -0.0940     2.4350 c3         1 JKJ      -0.101900
      9 C09          4.1720    -0.1260     2.5790 c3         1 JKJ       0.152800
     10 O10          3.7570    -1.3500     3.1880 oh         1 JKJ      -0.599800
     11 C11          3.7230     1.0580     3.4400 c3         1 JKJ      -0.101900
     12 C12          4.1640     2.3710     2.7940 c3         1 JKJ      -0.085900
     13 S13          3.5330     1.8010    -0.8820 s6         1 JKJ       1.343900
     14 O14          4.5880     2.6580    -1.2980 o          1 JKJ      -0.622800
     15 O15          3.2410     0.6040    -1.5890 o          1 JKJ      -0.622800
     16 C16          2.0190     2.7530    -0.5850 c3         1 JKJ      -0.246300
     17 H013        -0.3610     0.8050     0.6290 h1         1 JKJ       0.031033
     18 H011        -0.3610     0.1420    -1.0110 h1         1 JKJ       0.031033
     19 H012        -0.3610    -0.9470     0.3830 h1         1 JKJ       0.031033
     20 H031         1.6900     0.8840     1.8430 h1         1 JKJ       0.041700
     21 H032         1.6900    -0.8850     1.8430 h1         1 JKJ       0.041700
     22 H041         3.8580    -0.8200     0.5550 h1         1 JKJ       0.093700
     23 H061         5.1860     2.9990     0.9880 h1         1 JKJ       0.088700
     24 H072         6.7830     1.7580     2.4700 hc         1 JKJ       0.051200
     25 H071         6.6670     1.0120     0.8700 hc         1 JKJ       0.051200
     26 H082         6.0150    -0.9220     1.8130 hc         1 JKJ       0.050450
     27 H081         6.1510    -0.1830     3.4140 hc         1 JKJ       0.050450
     28 H101         4.3550    -1.5750     3.8810 ho         1 JKJ       0.409000
     29 H112         2.6440     1.0470     3.5320 hc         1 JKJ       0.050450
     30 H111         4.1680     0.9750     4.4240 hc         1 JKJ       0.050450
     31 H122         4.8270     2.9000     3.4680 hc         1 JKJ       0.051200
     32 H121         3.2930     2.9830     2.5910 hc         1 JKJ       0.051200
     33 H162         1.6820     2.5890     0.4310 h1         1 JKJ       0.094700
     34 H163         1.2490     2.4320    -1.2770 h1         1 JKJ       0.094700
     35 H161         2.2200     3.8080    -0.7330 h1         1 JKJ       0.094700
@<TRIPOS>BOND
     1     1     2 1
     2     2     3 1
     3    15    13 2
     4     3     4 1
     5    12    11 1
     6    12     6 1
     7    13     5 1
     8    13    14 2
     9    13    16 1
    10    11     9 1
    11     5     4 1
    12     5     6 1
    13     4     9 1
    14     6     7 1
    15     9    10 1
    16     9     8 1
    17     7     8 1
    18     1    17 1
    19     1    18 1
    20     1    19 1
    21     3    20 1
    22     3    21 1
    23     4    22 1
    24     6    23 1
    25     7    24 1
    26     7    25 1
    27     8    26 1
    28     8    27 1
    29    10    28 1
    30    11    29 1
    31    11    30 1
    32    12    31 1
    33    12    32 1
    34    16    33 1
    35    16    34 1
    36    16    35 1
@<TRIPOS>SUBSTRUCTURE
     1 JKJ         1 TEMP              0 ****  ****    0 ROOT
