@<TRIPOS>MOLECULE
molecule
   26    26     1     0     0
SMALL
bcc


@<TRIPOS>ATOM
      1 CAE          0.0000     0.0000     0.0000 ca         1 JKK      -0.127000
      2 CAF          1.3830     0.0000     0.0000 ca         1 JKK      -0.133000
      3 CAG         -0.6910     0.0010     1.1970 ca         1 JKK      -0.105000
      4 CAH          1.3810     0.0000     2.3960 ca         1 JKK      -0.121000
      5 CAI         -1.7420    -1.4270     5.3910 c3         1 JKK       0.179800
      6 CAJ         -1.9850    -2.8830     5.7960 c3         1 JKK      -0.255600
      7 CAM          2.0740     0.0000     1.1980 ca         1 JKK       0.027400
      8 CAN         -0.0010    -0.0050     2.3950 ca         1 JKK      -0.060300
      9 NAL         -1.0070    -1.3890     4.1190 n7         1 JKK      -0.812200
     10 OAA         -4.2180    -2.4470     7.1900 o          1 JKK      -0.706867
     11 OAB         -3.0710    -4.4140     7.6570 o          1 JKK      -0.706867
     12 OAC         -2.0760    -2.4600     8.4290 o          1 JKK      -0.706867
     13 SAO         -2.8930    -2.9310     7.3660 s6         1 JKK       1.253800
     14 Cl           3.8100    -0.0020     1.1990 cl         1 JKK      -0.128400
     15 H1          -0.5420     0.0030    -0.9380 ha         1 JKK       0.130000
     16 H2           1.9240    -0.0010    -0.9380 ha         1 JKK       0.133000
     17 H3          -1.7750    -0.0010     1.1960 ha         1 JKK       0.143000
     18 H4           1.9220    -0.0020     3.3340 ha         1 JKK       0.144000
     19 H5          -2.6930    -0.9220     5.2730 h1         1 JKK       0.034200
     20 H6          -1.1620    -0.9310     6.1590 h1         1 JKK       0.034200
     21 H7          -2.5660    -3.3790     5.0280 h1         1 JKK       0.079200
     22 H8          -1.0340    -3.3880     5.9130 h1         1 JKK       0.079200
     23 H9          -0.1670     0.5010     4.4550 h1         1 JKK       0.036700
     24 H10         -1.6990     0.5110     3.5700 h1         1 JKK       0.036700
     25 H11         -0.1360    -1.8700     4.2230 hn         1 JKK       0.352800
     26 CAK         -0.7550    -0.0050     3.6990 c3         1 JKK       0.197100
@<TRIPOS>BOND
     1    14     7 1
     2     2     7 ar
     3     2     1 ar
     4     7     4 ar
     5     1     3 ar
     6     4     8 ar
     7     3     8 ar
     8     8    26 1
     9    26     9 1
    10     9     5 1
    11     5     6 1
    12     6    13 1
    13    10    13 1
    14    13    12 1
    15    13    11 1
    16     1    15 1
    17     2    16 1
    18     3    17 1
    19     4    18 1
    20     5    19 1
    21     5    20 1
    22     6    21 1
    23     6    22 1
    24    26    23 1
    25    26    24 1
    26     9    25 1
@<TRIPOS>SUBSTRUCTURE
     1 JKK         1 TEMP              0 ****  ****    0 ROOT
