@<TRIPOS>MOLECULE
JKM
   31    33     1     0     0
SMALL
bcc


@<TRIPOS>ATOM
      1 P            0.0000     0.0000     0.0000 p5         1 JKM       1.190500
      2 N1           4.3050     0.2310     1.9470 n          1 JKM       0.031000
      3 C2           4.7870     0.6310     0.7560 c          1 JKM       0.585500
      4 O2           4.2560     0.2430    -0.2660 o          1 JKM      -0.680500
      5 N3           5.8470     1.4570     0.6810 ns         1 JKM      -0.127500
      6 C4           6.4460     1.8970     1.8060 c          1 JKM       0.612700
      7 O4           7.4060     2.6450     1.7390 o          1 JKM      -0.657500
      8 C5           5.9500     1.4830     3.0650 cc         1 JKM      -0.298200
      9 C6           4.8840     0.6550     3.1110 cd         1 JKM      -0.083400
     10 C1'          3.1450    -0.6630     1.9970 c3         1 JKM       0.238500
     11 C2'          1.9320     0.0000     1.3770 c3         1 JKM       0.114100
     12 O2'          1.6440     0.0000     0.0000 os         1 JKM      -0.356200
     13 O20         -0.3740    -0.2550     1.5860 os         1 JKM      -0.383200
     14 O2P         -0.5700    -1.1940    -0.9180 oh         1 JKM      -0.634400
     15 C3'          0.8100    -0.9080     2.0000 c3         1 JKM       0.097100
     16 O3P         -0.5230     1.3060    -0.4590 o          1 JKM      -0.616300
     17 C4'          1.2820    -0.9680     3.4330 c3         1 JKM       0.183100
     18 O4'          2.7300    -0.8900     3.3740 os         1 JKM      -0.396600
     19 C5'          0.8500    -2.2870     4.0770 c3         1 JKM       0.217400
     20 O5'          1.2010    -2.2780     5.4620 oh         1 JKM      -0.583800
     21 H5           6.4180     1.8260     3.9800 ha         1 JKM       0.151000
     22 H6           4.4900     0.3280     4.0660 h4         1 JKM       0.152000
     23 H1'          3.3570    -1.6040     1.5040 h2         1 JKM       0.052700
     24 H2'          1.8360     1.0070     1.7640 h1         1 JKM       0.047700
     25 HO2P        -1.0430    -0.8300    -1.6480 ho         1 JKM       0.462000
     26 H3'          0.8550    -1.8960     1.5590 h1         1 JKM       0.032700
     27 H4'          0.8870    -0.1260     3.9900 h1         1 JKM       0.053700
     28 H5'         -0.2230    -2.4030     3.9780 h1         1 JKM      -0.002300
     29 H5'A         1.3500    -3.1110     3.5830 h1         1 JKM      -0.002300
     30 HO5'         0.8730    -3.0600     5.8740 ho         1 JKM       0.395000
     31 HN3          6.1920     1.7450    -0.2140 hn         1 JKM       0.207500
@<TRIPOS>BOND
     1     1    12 1   
     2     1    13 1   
     3     1    14 1   
     4     1    16 2   
     5     2     3 1   
     6     2     9 1   
     7     2    10 1   
     8     3     4 2   
     9     3     5 1   
    10     5     6 1   
    11     5    31 1   
    12     6     7 2   
    13     6     8 1   
    14     8     9 2   
    15     8    21 1   
    16     9    22 1   
    17    10    11 1   
    18    10    18 1   
    19    10    23 1   
    20    11    12 1   
    21    11    15 1   
    22    11    24 1   
    23    13    15 1   
    24    14    25 1   
    25    15    17 1   
    26    15    26 1   
    27    17    18 1   
    28    17    19 1   
    29    17    27 1   
    30    19    20 1   
    31    19    28 1   
    32    19    29 1   
    33    20    30 1   
@<TRIPOS>SUBSTRUCTURE
     1 JKM         1 TEMP              0 ****  ****    0 ROOT
