@<TRIPOS>MOLECULE
molecule
   13    13     1     0     0
SMALL
bcc


@<TRIPOS>ATOM
      1 O01          0.0000     0.0000     0.0000 o          1 JKP      -0.818300
      2 C02          1.3460     0.0000     0.0000 c          1 JKP       0.881200
      3 O03          1.9530     0.0000     1.0520 o          1 JKP      -0.818300
      4 C04          2.0870    -0.0020    -1.2810 ca         1 JKP      -0.056600
      5 C05          1.4070     0.0040    -2.5040 ca         1 JKP      -0.205300
      6 C06          2.1380     0.0030    -3.6780 ca         1 JKP       0.504800
      7 Cl07         1.3100     0.0100    -5.2030 cl         1 JKP      -0.204000
      8 N08          3.4580    -0.0030    -3.6540 nb         1 JKP      -0.723000
      9 C09          4.1370    -0.0070    -2.5230 ca         1 JKP       0.504800
     10 Cl10         5.8720    -0.0140    -2.5670 cl         1 JKP      -0.204000
     11 C11          3.4850    -0.0020    -1.3040 ca         1 JKP      -0.205300
     12 H051         0.3390    -0.1740    -2.5300 ha         1 JKP       0.172000
     13 H111         4.0490    -0.0050    -0.3790 ha         1 JKP       0.172000
@<TRIPOS>BOND
     1     7     6 1
     2     3     2 1
     3     5     6 ar
     4     5     4 ar
     5     6     8 ar
     6     2     4 1
     7     2     1 1
     8     4    11 ar
     9     8     9 ar
    10    11     9 ar
    11     9    10 1
    12     5    12 1
    13    11    13 1
@<TRIPOS>SUBSTRUCTURE
     1 JKP         1 TEMP              0 ****  ****    0 ROOT
