@<TRIPOS>MOLECULE
molecule
   24    25     1     0     0
SMALL
bcc


@<TRIPOS>ATOM
      1 C10          0.0000     0.0000     0.0000 c3         1 JKS       0.128300
      2 C13          1.8850     0.0000     1.4280 c3         1 JKS       0.128300
      3 N01          3.7040     5.3720    -3.3010 n1         1 JKS      -0.349800
      4 C03          2.8880     3.3090    -2.0070 ca         1 JKS       0.465300
      5 C04          3.6020     2.8510    -0.8980 ca         1 JKS      -0.169300
      6 C05          3.1430     1.7420    -0.2130 ca         1 JKS      -0.151000
      7 C06          1.9770     1.1210    -0.6600 ca         1 JKS      -0.020700
      8 C07          1.3170     1.6340    -1.7750 ca         1 JKS       0.388200
      9 N08          1.7770     2.6940    -2.4000 nb         1 JKS      -0.631000
     10 N09          1.4790     0.0000     0.0000 nh         1 JKS      -0.557000
     11 C11         -0.4510    -0.6310     1.3310 c3         1 JKS      -0.139900
     12 C12          0.8580    -0.9550     2.0890 c3         1 JKS      -0.139900
     13 H102        -0.5430    -0.4730    -0.8100 h1         1 JKS       0.058700
     14 H101        -0.4740     0.9510     0.2090 h1         1 JKS       0.058700
     15 H131         1.8100     0.9910     1.8580 h1         1 JKS       0.058700
     16 H132         2.8600    -0.4550     1.3000 h1         1 JKS       0.058700
     17 H041         4.4700     3.4190    -0.5890 ha         1 JKS       0.150000
     18 H051         3.6670     1.1140     0.4970 ha         1 JKS       0.155000
     19 H071         0.2780     1.3280    -1.8050 h4         1 JKS       0.035100
     20 H111        -0.4150    -1.7050     1.1960 hc         1 JKS       0.082450
     21 H112        -1.4000    -0.3050     1.7390 hc         1 JKS       0.082450
     22 H122         0.3780    -0.6480     3.0100 hc         1 JKS       0.082450
     23 H121         1.5000    -1.7650     1.7670 hc         1 JKS       0.082450
     24 C02          3.3530     4.4570    -2.7250 cg         1 JKS       0.146800
@<TRIPOS>BOND
     1     3    24 3
     2    24     4 1
     3     4     9 ar
     4     4     5 ar
     5     9     8 ar
     6     5     6 ar
     7     8     7 ar
     8     6     7 ar
     9     7    10 1
    10    10     1 1
    11    10     2 1
    12     1    11 1
    13     2    12 1
    14    12    11 1
    15     1    13 1
    16     1    14 1
    17     2    15 1
    18     2    16 1
    19     5    17 1
    20     6    18 1
    21     8    19 1
    22    11    20 1
    23    11    21 1
    24    12    22 1
    25    12    23 1
@<TRIPOS>SUBSTRUCTURE
     1 JKS         1 TEMP              0 ****  ****    0 ROOT
