@<TRIPOS>MOLECULE
molecule
   82    85     1     0     0
SMALL
bcc


@<TRIPOS>ATOM
      1 C14          0.0000     0.0000     0.0000 c3         1 JKT      -0.150400
      2 C15          1.5300     0.0000     0.0000 c3         1 JKT      -0.064400
      3 C16          2.0400     0.0000     1.4420 c3         1 JKT      -0.036100
      4 C17          3.5470    -0.0000     1.4420 ca         1 JKT      -0.087300
      5 C18          4.2390     1.1960     1.4410 ca         1 JKT      -0.124000
      6 C22          4.2380    -1.1980     1.4460 ca         1 JKT      -0.124000
      7 C19          5.6210     1.1960     1.4400 ca         1 JKT      -0.123000
      8 C21          5.6200    -1.1980     1.4470 ca         1 JKT      -0.123000
      9 C20          6.3120    -0.0010     1.4410 ca         1 JKT      -0.125000
     10 C12         -0.5030     0.0010    -1.4210 c          1 JKT       0.690100
     11 O13          0.2850    -0.0000    -2.3430 o          1 JKT      -0.587100
     12 N11         -1.8290     0.0010    -1.6660 n          1 JKT      -0.488800
     13 C23         -2.8920     0.0010    -0.6450 c3         1 JKT       0.086000
     14 C10         -2.4530     0.0070    -2.9970 c3         1 JKT       0.051700
     15 C8          -2.0610     1.2570    -3.7420 c          1 JKT       0.669100
     16 O9          -1.6270     2.2130    -3.1350 o          1 JKT      -0.547100
     17 C25         -3.9810    -0.0220    -2.7870 c3         1 JKT      -0.103400
     18 C24         -4.1250    -0.6090    -1.3560 c3         1 JKT       0.055000
     19 N26         -5.3700    -0.1610    -0.7270 na         1 JKT       0.122400
     20 N27         -6.4500    -0.8520    -0.6170 nc         1 JKT      -0.186800
     21 N28         -7.3560    -0.1650    -0.0140 nd         1 JKT      -0.333000
     22 C30         -5.5790     1.0490    -0.1590 cc         1 JKT      -0.286600
     23 C29         -6.8550     1.0390     0.2910 cd         1 JKT       0.259600
     24 C31         -7.5710     2.1590     1.0000 c3         1 JKT       0.122700
     25 N32         -8.3380     2.9420     0.0270 ns         1 JKT      -0.579900
     26 O34         -9.0800     4.3090     1.6100 o          1 JKT      -0.607000
     27 C33         -9.0630     4.0020     0.4350 c          1 JKT       0.753100
     28 O35         -9.7670     4.7210    -0.4590 os         1 JKT      -0.442900
     29 C36        -10.5250     5.8490     0.0520 c3         1 JKT       0.176800
     30 C39         -9.5710     6.8430     0.7200 c3         1 JKT      -0.105433
     31 C37        -11.2550     6.5390    -1.1030 c3         1 JKT      -0.105433
     32 C38        -11.5460     5.3560     1.0780 c3         1 JKT      -0.105433
     33 N7          -2.1950     1.3130    -5.0810 n          1 JKT      -0.490800
     34 C3          -1.8530     2.4650    -5.9290 c3         1 JKT       0.102700
     35 C1          -2.7120     3.6700    -5.5400 c3         1 JKT       0.294300
     36 N2          -2.3630     4.8160    -6.3920 nz         1 JKT      -0.851600
     37 C4          -2.1450     2.0620    -7.3900 c3         1 JKT      -0.119400
     38 C5          -2.1000     0.5120    -7.3380 c3         1 JKT      -0.078400
     39 C6          -2.7010     0.2280    -5.9410 c3         1 JKT       0.087000
     40 OXT         -2.4720     4.0050    -4.1710 oh         1 JKT      -0.498800
     41 H141        -0.3610    -0.8850     0.5100 hc         1 JKT       0.065700
     42 H142        -0.3610     0.8840     0.5110 hc         1 JKT       0.065700
     43 H151         1.8910    -0.8840    -0.5110 hc         1 JKT       0.063700
     44 H152         1.8910     0.8850    -0.5110 hc         1 JKT       0.063700
     45 H161         1.6790     0.8850     1.9530 hc         1 JKT       0.047700
     46 H162         1.6790    -0.8840     1.9530 hc         1 JKT       0.047700
     47 H18          3.6980     2.1340     1.4400 ha         1 JKT       0.127500
     48 H22          3.6970    -2.1360     1.4510 ha         1 JKT       0.127500
     49 H19          6.1630     2.1340     1.4380 ha         1 JKT       0.132000
     50 H21          6.1620    -2.1360     1.4490 ha         1 JKT       0.132000
     51 H20          7.3950    -0.0010     1.4410 ha         1 JKT       0.133000
     52 H231        -2.6030    -0.6130     0.1990 h1         1 JKT       0.070200
     53 H232        -3.1060     1.0140    -0.3260 h1         1 JKT       0.070200
     54 H10         -2.1430    -0.8700    -3.5510 h1         1 JKT       0.085700
     55 H24         -4.0600    -1.6910    -1.3760 h1         1 JKT       0.116700
     56 H251        -4.4540    -0.6700    -3.5140 hc         1 JKT       0.071700
     57 H252        -4.3920     0.9800    -2.8310 hc         1 JKT       0.071700
     58 H30         -4.8700     1.8640    -0.0840 h4         1 JKT       0.185000
     59 H311        -8.2450     1.7450     1.7410 h1         1 JKT       0.073200
     60 H312        -6.8460     2.7990     1.4880 h1         1 JKT       0.073200
     61 H32         -8.3320     2.6820    -0.9400 hn         1 JKT       0.321500
     62 H391        -9.3690     6.5240     1.7350 hc         1 JKT       0.050700
     63 H392        -8.6430     6.8830     0.1620 hc         1 JKT       0.050700
     64 H393       -10.0260     7.8260     0.7340 hc         1 JKT       0.050700
     65 H371       -10.5310     6.8850    -1.8310 hc         1 JKT       0.050700
     66 H372       -11.8160     7.3830    -0.7220 hc         1 JKT       0.050700
     67 H373       -11.9320     5.8360    -1.5720 hc         1 JKT       0.050700
     68 H381       -11.0650     5.2470     2.0430 hc         1 JKT       0.050700
     69 H382       -11.9420     4.3980     0.7620 hc         1 JKT       0.050700
     70 H383       -12.3550     6.0720     1.1560 hc         1 JKT       0.050700
     71 H3          -0.8020     2.7040    -5.8180 h1         1 JKT       0.096700
     72 H61C        -2.3590    -0.7320    -5.5740 h1         1 JKT       0.065200
     73 H62C        -3.7830     0.2580    -5.9850 h1         1 JKT       0.065200
     74 H41C        -3.1270     2.4050    -7.6920 hc         1 JKT       0.057200
     75 H42C        -1.3770     2.4430    -8.0510 hc         1 JKT       0.057200
     76 H21N        -2.1900     5.6170    -5.8180 hn         1 JKT       0.458133
     77 H22N        -3.1200     5.0090    -7.0170 hn         1 JKT       0.458133
     78 H51C        -2.7170     0.0830    -8.1180 hc         1 JKT       0.083200
     79 H52C        -1.0800     0.1540    -7.3980 hc         1 JKT       0.083200
     80 HOXT        -3.0990     4.6500    -3.8910 ho         1 JKT       0.416000
     81 H1C         -3.7590     3.4260    -5.6750 hx         1 JKT       0.100700
     82 H23         -1.5400     4.6000    -6.9200 hn         1 JKT       0.458133
@<TRIPOS>BOND
     1    11    10 2
     2    10     1 1
     3    10    12 1
     4     1     2 1
     5     2     3 1
     6     3     4 1
     7     4     5 ar
     8     4     6 ar
     9     5     7 ar
    10     7     9 ar
    11     9     8 ar
    12     8     6 ar
    13    12    13 1
    14    12    14 1
    15    13    18 1
    16    14    15 1
    17    14    17 1
    18    15    16 2
    19    15    33 1
    20    33    34 1
    21    33    39 1
    22    34    35 1
    23    34    37 1
    24    35    36 1
    25    35    40 1
    26    37    38 1
    27    38    39 1
    28    17    18 1
    29    18    19 1
    30    19    20 1
    31    19    22 1
    32    20    21 2
    33    21    23 1
    34    22    23 2
    35    23    24 1
    36    24    25 1
    37    25    27 1
    38    27    26 2
    39    27    28 1
    40    28    29 1
    41    29    30 1
    42    29    31 1
    43    29    32 1
    44     1    41 1
    45     1    42 1
    46     2    43 1
    47     2    44 1
    48     3    45 1
    49     3    46 1
    50     5    47 1
    51     6    48 1
    52     7    49 1
    53     9    51 1
    54     8    50 1
    55    13    52 1
    56    13    53 1
    57    14    54 1
    58    18    55 1
    59    17    56 1
    60    17    57 1
    61    34    71 1
    62    39    72 1
    63    39    73 1
    64    37    74 1
    65    37    75 1
    66    36    76 1
    67    36    77 1
    68    38    78 1
    69    38    79 1
    70    22    58 1
    71    24    59 1
    72    24    60 1
    73    25    61 1
    74    30    62 1
    75    30    63 1
    76    30    64 1
    77    31    65 1
    78    31    66 1
    79    31    67 1
    80    32    68 1
    81    32    69 1
    82    32    70 1
    83    40    80 1
    84    35    81 1
    85    82    36 1
@<TRIPOS>SUBSTRUCTURE
     1 JKT         1 TEMP              0 ****  ****    0 ROOT
