@<TRIPOS>MOLECULE
JKT
   82    85     1     0     0
SMALL
bcc


@<TRIPOS>ATOM
      1 C14          0.0000     0.0000     0.0000 c3         1 JKT      -0.094400
      2 C15          1.5300     0.0000     0.0000 c3         1 JKT      -0.014400
      3 C16          2.0400     0.0000     1.4420 c3         1 JKT       0.030900
      4 C17          3.5470    -0.0000     1.4420 ca         1 JKT      -0.096300
      5 C18          4.2390     1.1960     1.4410 ca         1 JKT      -0.097000
      6 C22          4.2380    -1.1980     1.4460 ca         1 JKT      -0.097000
      7 C19          5.6210     1.1960     1.4400 ca         1 JKT      -0.095500
      8 C21          5.6200    -1.1980     1.4470 ca         1 JKT      -0.095500
      9 C20          6.3120    -0.0010     1.4410 ca         1 JKT      -0.098000
     10 C12         -0.5030     0.0010    -1.4210 c          1 JKT       0.619100
     11 O13          0.2850    -0.0000    -2.3430 o          1 JKT      -0.630100
     12 N11         -1.8290     0.0010    -1.6660 n          1 JKT      -0.152800
     13 C23         -2.8920     0.0010    -0.6450 c3         1 JKT       0.035000
     14 C10         -2.4530     0.0070    -2.9970 c3         1 JKT      -0.026300
     15 C8          -2.0610     1.2570    -3.7420 c          1 JKT       0.600100
     16 O9          -1.6270     2.2130    -3.1350 o          1 JKT      -0.591100
     17 C25         -3.9810    -0.0220    -2.7870 c3         1 JKT      -0.040400
     18 C24         -4.1250    -0.6090    -1.3560 c3         1 JKT      -0.064000
     19 N26         -5.3700    -0.1610    -0.7270 na         1 JKT       0.590400
     20 N27         -6.4500    -0.8520    -0.6170 nc         1 JKT      -0.358800
     21 N28         -7.3560    -0.1650    -0.0140 nd         1 JKT      -0.280000
     22 C30         -5.5790     1.0490    -0.1590 cc         1 JKT      -0.448600
     23 C29         -6.8550     1.0390     0.2910 cd         1 JKT       0.249600
     24 C31         -7.5710     2.1590     1.0000 c3         1 JKT       0.067700
     25 N32         -8.3380     2.9420     0.0270 ns         1 JKT      -0.184900
     26 O34         -9.0800     4.3090     1.6100 o          1 JKT      -0.652000
     27 C33         -9.0630     4.0020     0.4350 c          1 JKT       0.685100
     28 O35         -9.7670     4.7210    -0.4590 os         1 JKT      -0.425900
     29 C36        -10.5250     5.8490     0.0520 c3         1 JKT       0.194800
     30 C39         -9.5710     6.8430     0.7200 c3         1 JKT      -0.027433
     31 C37        -11.2550     6.5390    -1.1030 c3         1 JKT      -0.027433
     32 C38        -11.5460     5.3560     1.0780 c3         1 JKT      -0.027433
     33 N7          -2.1950     1.3130    -5.0810 n          1 JKT      -0.155800
     34 C3          -1.8530     2.4650    -5.9290 c3         1 JKT       0.022700
     35 C1          -2.7120     3.6700    -5.5400 c3         1 JKT       0.146300
     36 N2          -2.3630     4.8160    -6.3920 nz         1 JKT      -0.003600
     37 C4          -2.1450     2.0620    -7.3900 c3         1 JKT      -0.056400
     38 C5          -2.1000     0.5120    -7.3380 c3         1 JKT      -0.010400
     39 C6          -2.7010     0.2280    -5.9410 c3         1 JKT       0.041000
     40 OXT         -2.4720     4.0050    -4.1710 oh         1 JKT      -0.470800
     41 H141        -0.3610    -0.8850     0.5100 hc         1 JKT       0.033200
     42 H142        -0.3610     0.8840     0.5110 hc         1 JKT       0.033200
     43 H151         1.8910    -0.8840    -0.5110 hc         1 JKT       0.033700
     44 H152         1.8910     0.8850    -0.5110 hc         1 JKT       0.033700
     45 H161         1.6790     0.8850     1.9530 hc         1 JKT       0.016700
     46 H162         1.6790    -0.8840     1.9530 hc         1 JKT       0.016700
     47 H18          3.6980     2.1340     1.4400 ha         1 JKT       0.103000
     48 H22          3.6970    -2.1360     1.4510 ha         1 JKT       0.103000
     49 H19          6.1630     2.1340     1.4380 ha         1 JKT       0.104000
     50 H21          6.1620    -2.1360     1.4490 ha         1 JKT       0.104000
     51 H20          7.3950    -0.0010     1.4410 ha         1 JKT       0.105000
     52 H231        -2.6030    -0.6130     0.1990 h1         1 JKT       0.041200
     53 H232        -3.1060     1.0140    -0.3260 h1         1 JKT       0.041200
     54 H10         -2.1430    -0.8700    -3.5510 h1         1 JKT       0.057700
     55 H24         -4.0600    -1.6910    -1.3760 h1         1 JKT       0.083700
     56 H251        -4.4540    -0.6700    -3.5140 hc         1 JKT       0.037700
     57 H252        -4.3920     0.9800    -2.8310 hc         1 JKT       0.037700
     58 H30         -4.8700     1.8640    -0.0840 h4         1 JKT       0.167000
     59 H311        -8.2450     1.7450     1.7410 h1         1 JKT       0.037200
     60 H312        -6.8460     2.7990     1.4880 h1         1 JKT       0.037200
     61 H32         -8.3320     2.6820    -0.9400 hn         1 JKT       0.172500
     62 H391        -9.3690     6.5240     1.7350 hc         1 JKT       0.019700
     63 H392        -8.6430     6.8830     0.1620 hc         1 JKT       0.019700
     64 H393       -10.0260     7.8260     0.7340 hc         1 JKT       0.019700
     65 H371       -10.5310     6.8850    -1.8310 hc         1 JKT       0.019700
     66 H372       -11.8160     7.3830    -0.7220 hc         1 JKT       0.019700
     67 H373       -11.9320     5.8360    -1.5720 hc         1 JKT       0.019700
     68 H381       -11.0650     5.2470     2.0430 hc         1 JKT       0.019700
     69 H382       -11.9420     4.3980     0.7620 hc         1 JKT       0.019700
     70 H383       -12.3550     6.0720     1.1560 hc         1 JKT       0.019700
     71 H3          -0.8020     2.7040    -5.8180 h1         1 JKT       0.067700
     72 H61C        -2.3590    -0.7320    -5.5740 h1         1 JKT       0.035200
     73 H62C        -3.7830     0.2580    -5.9850 h1         1 JKT       0.035200
     74 H41C        -3.1270     2.4050    -7.6920 hc         1 JKT       0.026700
     75 H42C        -1.3770     2.4430    -8.0510 hc         1 JKT       0.026700
     76 H21N        -2.1900     5.6170    -5.8180 hn         1 JKT       0.238133
     77 H22N        -3.1200     5.0090    -7.0170 hn         1 JKT       0.238133
     78 H51C        -2.7170     0.0830    -8.1180 hc         1 JKT       0.048200
     79 H52C        -1.0800     0.1540    -7.3980 hc         1 JKT       0.048200
     80 HOXT        -3.0990     4.6500    -3.8910 ho         1 JKT       0.398000
     81 H1C         -3.7590     3.4260    -5.6750 hx         1 JKT       0.067700
     82 H23         -1.5400     4.6000    -6.9200 hn         1 JKT       0.238133
@<TRIPOS>BOND
     1     1     2 1   
     2     1    10 1   
     3     1    41 1   
     4     1    42 1   
     5     2     3 1   
     6     2    43 1   
     7     2    44 1   
     8     3     4 1   
     9     3    45 1   
    10     3    46 1   
    11     4     5 ar  
    12     4     6 ar  
    13     5     7 ar  
    14     5    47 1   
    15     6     8 ar  
    16     6    48 1   
    17     7     9 ar  
    18     7    49 1   
    19     8     9 ar  
    20     8    50 1   
    21     9    51 1   
    22    10    11 2   
    23    10    12 1   
    24    12    13 1   
    25    12    14 1   
    26    13    18 1   
    27    13    52 1   
    28    13    53 1   
    29    14    15 1   
    30    14    17 1   
    31    14    54 1   
    32    15    16 2   
    33    15    33 1   
    34    17    18 1   
    35    17    56 1   
    36    17    57 1   
    37    18    19 1   
    38    18    55 1   
    39    19    20 1   
    40    19    22 1   
    41    20    21 2   
    42    21    23 1   
    43    22    23 2   
    44    22    58 1   
    45    23    24 1   
    46    24    25 1   
    47    24    59 1   
    48    24    60 1   
    49    25    27 1   
    50    25    61 1   
    51    26    27 2   
    52    27    28 1   
    53    28    29 1   
    54    29    30 1   
    55    29    31 1   
    56    29    32 1   
    57    30    62 1   
    58    30    63 1   
    59    30    64 1   
    60    31    65 1   
    61    31    66 1   
    62    31    67 1   
    63    32    68 1   
    64    32    69 1   
    65    32    70 1   
    66    33    34 1   
    67    33    39 1   
    68    34    35 1   
    69    34    37 1   
    70    34    71 1   
    71    35    36 1   
    72    35    40 1   
    73    35    81 1   
    74    36    76 1   
    75    36    77 1   
    76    36    82 1   
    77    37    38 1   
    78    37    74 1   
    79    37    75 1   
    80    38    39 1   
    81    38    78 1   
    82    38    79 1   
    83    39    72 1   
    84    39    73 1   
    85    40    80 1   
@<TRIPOS>SUBSTRUCTURE
     1 JKT         1 TEMP              0 ****  ****    0 ROOT
