@<TRIPOS>MOLECULE
JKV
   21    22     1     0     0
SMALL
bcc


@<TRIPOS>ATOM
      1 C10          0.0000     0.0000     0.0000 ca         1 JKV      -0.031600
      2 C13         -0.0120    -0.0040     2.3960 ca         1 JKV      -0.074000
      3 C02          2.5560     0.0030     5.8800 cc         1 JKV      -0.140700
      4 C03          1.5440     0.0020     4.9710 cd         1 JKV      -0.323300
      5 C04          2.1210     0.0020     3.6870 cd         1 JKV       0.424800
      6 N05          3.4290     0.0010     3.8250 nc         1 JKV      -0.651800
      7 N06          3.7280     0.0070     5.1930 na         1 JKV       0.433400
      8 C07          1.3810     0.0010     2.4000 ca         1 JKV      -0.113500
      9 C08          2.0770     0.0000     1.1940 ca         1 JKV      -0.074000
     10 C09          1.3850     0.0000     0.0000 ca         1 JKV      -0.104500
     11 Cl11        -0.8650    -0.0000    -1.5040 cl         1 JKV      -0.032400
     12 C12         -0.6960    -0.0040     1.1970 ca         1 JKV      -0.104500
     13 H131        -0.5570    -0.0070     3.3320 ha         1 JKV       0.118500
     14 H011         2.3640    -0.8640     7.7630 hn         1 JKV       0.273800
     15 H012         2.3640     0.8690     7.7630 hn         1 JKV       0.273800
     16 H031         0.4840     0.0030     5.1950 ha         1 JKV       0.141000
     17 H061         4.6440     0.0080     5.5950 hn         1 JKV       0.145700
     18 H081         3.1600     0.0020     1.1930 ha         1 JKV       0.118500
     19 H091         1.9260    -0.0010    -0.9390 ha         1 JKV       0.114500
     20 H121        -1.7790    -0.0060     1.1930 ha         1 JKV       0.114500
     21 N01          2.4150     0.0020     7.2650 nv         1 JKV      -0.506200
@<TRIPOS>BOND
     1     1    10 ar  
     2     1    11 1   
     3     1    12 ar  
     4     2     8 ar  
     5     2    12 ar  
     6     2    13 1   
     7     3     4 2   
     8     3     7 1   
     9     3    21 1   
    10     4     5 1   
    11     4    16 1   
    12     5     6 2   
    13     5     8 1   
    14     6     7 1   
    15     7    17 1   
    16     8     9 ar  
    17     9    10 ar  
    18     9    18 1   
    19    10    19 1   
    20    12    20 1   
    21    14    21 1   
    22    15    21 1   
@<TRIPOS>SUBSTRUCTURE
     1 JKV         1 TEMP              0 ****  ****    0 ROOT
