@<TRIPOS>MOLECULE
molecule
   21    22     1     0     0
SMALL
bcc


@<TRIPOS>ATOM
      1 C10          0.0000     0.0000     0.0000 ca         1 JKV       0.031400
      2 C13         -0.0120    -0.0040     2.3960 ca         1 JKV      -0.099000
      3 C02          2.5560     0.0030     5.8800 cc         1 JKV       0.165300
      4 C03          1.5440     0.0020     4.9710 cd         1 JKV      -0.341300
      5 C04          2.1210     0.0020     3.6870 cd         1 JKV       0.393800
      6 N05          3.4290     0.0010     3.8250 nc         1 JKV      -0.503800
      7 N06          3.7280     0.0070     5.1930 na         1 JKV      -0.057600
      8 C07          1.3810     0.0010     2.4000 ca         1 JKV      -0.109500
      9 C08          2.0770     0.0000     1.1940 ca         1 JKV      -0.099000
     10 C09          1.3850     0.0000     0.0000 ca         1 JKV      -0.126500
     11 Cl11        -0.8650    -0.0000    -1.5040 cl         1 JKV      -0.111400
     12 C12         -0.6960    -0.0040     1.1970 ca         1 JKV      -0.126500
     13 H131        -0.5570    -0.0070     3.3320 ha         1 JKV       0.147500
     14 H011         2.3640    -0.8640     7.7630 hn         1 JKV       0.437800
     15 H012         2.3640     0.8690     7.7630 hn         1 JKV       0.437800
     16 H031         0.4840     0.0030     5.1950 ha         1 JKV       0.159000
     17 H061         4.6440     0.0080     5.5950 hn         1 JKV       0.325700
     18 H081         3.1600     0.0020     1.1930 ha         1 JKV       0.147500
     19 H091         1.9260    -0.0010    -0.9390 ha         1 JKV       0.144500
     20 H121        -1.7790    -0.0060     1.1930 ha         1 JKV       0.144500
     21 N01          2.4150     0.0020     7.2650 nv         1 JKV      -0.961200
@<TRIPOS>BOND
     1    21     3 1
     2     7     3 1
     3     7     6 1
     4     3     4 2
     5     6     5 2
     6     4     5 1
     7     5     8 1
     8     8     9 ar
     9     8     2 ar
    10     9    10 ar
    11     2    12 ar
    12    10     1 ar
    13    12     1 ar
    14     1    11 1
    15     2    13 1
    16    21    14 1
    17    21    15 1
    18     4    16 1
    19     7    17 1
    20     9    18 1
    21    10    19 1
    22    12    20 1
@<TRIPOS>SUBSTRUCTURE
     1 JKV         1 TEMP              0 ****  ****    0 ROOT
