@<TRIPOS>MOLECULE
JKY
   23    23     1     0     0
SMALL
bcc


@<TRIPOS>ATOM
      1 C10          0.0000     0.0000     0.0000 ca         1 JKY      -0.027600
      2 C13          0.0000    -0.0100     2.3950 ca         1 JKY      -0.071500
      3 C01          2.8030    -0.9790     6.7860 c3         1 JKY       0.009700
      4 S02          3.4910    -1.7420     5.2900 s6         1 JKY       0.954900
      5 O03          4.6620    -1.0520     4.8730 o          1 JKY      -0.583300
      6 O04          3.4750    -3.1580     5.4000 o          1 JKY      -0.583300
      7 N05          2.3790    -1.4100     4.1100 n7         1 JKY      -0.600100
      8 C06          2.1350    -0.0240     3.7000 c3         1 JKY       0.289100
      9 C07          1.3820    -0.0110     2.3950 ca         1 JKY      -0.121300
     10 C08          2.0740     0.0000     1.1980 ca         1 JKY      -0.071500
     11 C09          1.3840     0.0000     0.0000 ca         1 JKY      -0.101000
     12 Cl11        -0.8680     0.0000    -1.5040 cl         1 JKY      -0.023400
     13 C12         -0.6920    -0.0050     1.1980 ca         1 JKY      -0.101000
     14 H131        -0.5410    -0.0140     3.3340 ha         1 JKY       0.112000
     15 H011         1.7560    -1.2430     6.8760 h1         1 JKY       0.061700
     16 H012         2.8990     0.0980     6.7200 h1         1 JKY       0.061700
     17 H013         3.3420    -1.3380     7.6550 h1         1 JKY       0.061700
     18 H051         1.8730    -2.1570     3.6750 hn         1 JKY       0.358800
     19 H062         3.0820     0.4870     3.5750 h1         1 JKY       0.015700
     20 H061         1.5500     0.4800     4.4590 h1         1 JKY       0.015700
     21 H081         3.1570    -0.0000     1.1980 ha         1 JKY       0.112000
     22 H091         1.9260     0.0090    -0.9380 ha         1 JKY       0.116500
     23 H121        -1.7750    -0.0040     1.1980 ha         1 JKY       0.116500
@<TRIPOS>BOND
     1     1    11 ar  
     2     1    12 1   
     3     1    13 ar  
     4     2     9 ar  
     5     2    13 ar  
     6     2    14 1   
     7     3     4 1   
     8     3    15 1   
     9     3    16 1   
    10     3    17 1   
    11     4     5 2   
    12     4     6 2   
    13     4     7 1   
    14     7     8 1   
    15     7    18 1   
    16     8     9 1   
    17     8    19 1   
    18     8    20 1   
    19     9    10 ar  
    20    10    11 ar  
    21    10    21 1   
    22    11    22 1   
    23    13    23 1   
@<TRIPOS>SUBSTRUCTURE
     1 JKY         1 TEMP              0 ****  ****    0 ROOT
