@<TRIPOS>MOLECULE
molecule
   22    23     1     0     0
SMALL
bcc


@<TRIPOS>ATOM
      1 F1           0.0000     0.0000     0.0000 f          1 JKZ      -0.219300
      2 C2           1.4000     0.0000     0.0000 c3         1 JKZ       0.667100
      3 F3           1.8670     0.0000     1.3180 f          1 JKZ      -0.219300
      4 F4           1.8650    -1.1420    -0.6610 f          1 JKZ      -0.219300
      5 C5           1.9010     1.2310    -0.7110 cc         1 JKZ      -0.068200
      6 C6           3.2810     1.4580    -0.8430 cc         1 JKZ      -0.187200
      7 C7           3.7240     2.5660    -1.4820 cd         1 JKZ       0.042400
      8 N8           2.8370     3.4610    -1.9990 ns         1 JKZ      -0.392100
      9 C9           1.5110     3.2700    -1.8880 c          1 JKZ       0.686700
     10 C10          1.0190     2.1280    -1.2350 cd         1 JKZ      -0.207200
     11 O12          0.7350     4.0860    -2.3580 o          1 JKZ      -0.640500
     12 C14          5.2390     2.5890    -1.4950 c3         1 JKZ      -0.043200
     13 C17          5.6660     1.1420    -1.1660 c3         1 JKZ      -0.076400
     14 C20          4.4530     0.6260    -0.3630 c3         1 JKZ      -0.026200
     15 HN8          3.1790     4.2780    -2.4660 hn         1 JKZ       0.338500
     16 H10         -0.0480     1.9670    -1.1410 ha         1 JKZ       0.184000
     17 H14          5.6100     3.2700    -0.7380 hc         1 JKZ       0.064200
     18 H14A         5.6020     2.8730    -2.4750 hc         1 JKZ       0.064200
     19 H17          5.7790     0.5700    -2.0790 hc         1 JKZ       0.060700
     20 H17A         6.5520     1.1470    -0.5430 hc         1 JKZ       0.060700
     21 H20          4.2780    -0.4170    -0.5970 hc         1 JKZ       0.064700
     22 H20A         4.6150     0.8020     0.6940 hc         1 JKZ       0.064700
@<TRIPOS>BOND
     1     1     2 1
     2     2     3 1
     3     2     4 1
     4     2     5 1
     5     5     6 1
     6     5    10 2
     7     6     7 2
     8     6    14 1
     9     7     8 1
    10     7    12 1
    11     8     9 1
    12     9    10 1
    13     9    11 2
    14    12    13 1
    15    13    14 1
    16     8    15 1
    17    10    16 1
    18    12    17 1
    19    12    18 1
    20    13    19 1
    21    13    20 1
    22    14    21 1
    23    14    22 1
@<TRIPOS>SUBSTRUCTURE
     1 JKZ         1 TEMP              0 ****  ****    0 ROOT
