@<TRIPOS>MOLECULE
molecule
   27    28     1     0     0
SMALL
bcc


@<TRIPOS>ATOM
      1 C10          0.0000     0.0000     0.0000 ca         1 JL1      -0.300300
      2 C13         -0.6120     0.0120     3.6990 c          1 JL1       0.883200
      3 C17          6.0740    -0.8430     2.3050 ca         1 JL1      -0.151500
      4 C02          6.5790     0.4100     2.0090 ca         1 JL1      -0.082300
      5 C03          5.8200     1.5410     2.2530 ca         1 JL1      -0.151500
      6 C04          4.5550     1.4220     2.7940 ca         1 JL1      -0.069000
      7 C05          4.0450     0.1640     3.0930 ca         1 JL1      -0.037100
      8 S06          2.4320     0.0070     3.7820 ss         1 JL1      -0.147200
      9 C07          1.4660     0.0090     2.3080 ca         1 JL1       0.521600
     10 N08          2.0680     0.0000     1.1270 nb         1 JL1      -0.724000
     11 C09          1.3840     0.0000     0.0000 ca         1 JL1       0.400200
     12 C11         -0.6820     0.0040     1.2040 ca         1 JL1      -0.053000
     13 C12          0.0630     0.0080     2.3900 ca         1 JL1      -0.213900
     14 O14          0.0450     0.0160     4.7210 o          1 JL1      -0.817800
     15 O15         -1.9590     0.0110     3.7630 o          1 JL1      -0.817800
     16 C16          4.8100    -0.9700     2.8450 ca         1 JL1      -0.069000
     17 H101        -0.5460    -0.0010    -0.9360 ha         1 JL1       0.112000
     18 H171         6.6710    -1.7260     2.1120 ha         1 JL1       0.115500
     19 H011         8.2810     1.5770     1.4840 hc         1 JL1       0.033700
     20 H012         7.9380     0.2390     0.3790 hc         1 JL1       0.033700
     21 H013         8.6490    -0.0850     1.9660 hc         1 JL1       0.033700
     22 H031         6.2180     2.5210     2.0200 ha         1 JL1       0.115500
     23 H041         3.9610     2.3070     2.9850 ha         1 JL1       0.137000
     24 H091         1.9160    -0.0050    -0.9440 h4         1 JL1      -0.004900
     25 H111        -1.7650     0.0040     1.2290 ha         1 JL1       0.160000
     26 H161         4.4160    -1.9520     3.0770 ha         1 JL1       0.137000
     27 C01          7.9590     0.5450     1.4180 c3         1 JL1      -0.044800
@<TRIPOS>BOND
     1     3    16 ar
     2     3     4 ar
     3    16     7 ar
     4    14     2 1
     5    15     2 1
     6     2    13 1
     7    13    12 ar
     8    13     9 ar
     9     4    27 1
    10     4     5 ar
    11     8     7 1
    12     8     9 1
    13     7     6 ar
    14    12     1 ar
    15     9    10 ar
    16     1    11 ar
    17    10    11 ar
    18     6     5 ar
    19     1    17 1
    20     3    18 1
    21    27    19 1
    22    27    20 1
    23    27    21 1
    24     5    22 1
    25     6    23 1
    26    11    24 1
    27    12    25 1
    28    16    26 1
@<TRIPOS>SUBSTRUCTURE
     1 JL1         1 TEMP              0 ****  ****    0 ROOT
