@<TRIPOS>MOLECULE
molecule
   20    21     1     0     0
SMALL
bcc


@<TRIPOS>ATOM
      1 C10          0.0000     0.0000     0.0000 cc         1 JL4       0.025300
      2 C02          3.0410     0.0030     5.3120 cc         1 JL4       0.449700
      3 N03          2.8100     0.0020     4.0460 nd         1 JL4      -0.675000
      4 C04          1.5390     0.0000     3.6620 cd         1 JL4       0.506800
      5 C05          0.6570     0.0010     4.6870 cc         1 JL4      -0.199400
      6 S06          1.5750    -0.0040     6.1910 ss         1 JL4      -0.285300
      7 C07          1.0530    -0.0010     2.2810 cd         1 JL4      -0.181600
      8 C08          1.9400     0.0000     1.2420 cd         1 JL4      -0.113000
      9 C09          1.3680     0.0000     0.0000 cd         1 JL4      -0.193000
     10 S11         -0.5910    -0.0000     1.6560 ss         1 JL4      -0.095800
     11 C12         -0.8160     0.0050    -1.1590 c          1 JL4       0.890200
     12 O13         -0.3050     0.0100    -2.2640 o          1 JL4      -0.826300
     13 O14         -2.1600     0.0050    -1.0380 o          1 JL4      -0.826300
     14 H013         4.3300     0.2160     6.9930 hc         1 JL4       0.050033
     15 H011         4.8730    -0.9680     5.7960 hc         1 JL4       0.050033
     16 H012         5.0240     0.7620     5.4600 hc         1 JL4       0.050033
     17 H051        -0.4220    -0.0010     4.5990 h4         1 JL4       0.186000
     18 H081         3.0130     0.0000     1.3910 ha         1 JL4       0.139000
     19 H091         1.9530     0.0000    -0.9120 ha         1 JL4       0.159000
     20 C01          4.4130     0.0030     5.9340 c3         1 JL4      -0.109400
@<TRIPOS>BOND
     1     1     9 2
     2     1    10 1
     3     1    11 1
     4    20     2 1
     5     2     3 2
     6     2     6 1
     7     3     4 1
     8     4     5 2
     9     4     7 1
    10     5     6 1
    11     7     8 2
    12     7    10 1
    13     8     9 1
    14    11    12 1
    15    11    13 1
    16    20    14 1
    17    20    15 1
    18    20    16 1
    19     5    17 1
    20     8    18 1
    21     9    19 1
@<TRIPOS>SUBSTRUCTURE
     1 JL4         1 TEMP              0 ****  ****    0 ROOT
