@<TRIPOS>MOLECULE
molecule
   23    24     1     0     0
SMALL
bcc


@<TRIPOS>ATOM
      1 C10          0.0000     0.0000     0.0000 ca         1 JL7      -0.120000
      2 C13          1.3880     0.0010     2.4010 ca         1 JL7      -0.089000
      3 C15         -0.7510     0.0020     3.6980 c3         1 JL7       0.672200
      4 O01          5.7240     0.0060    -4.0870 o          1 JL7      -0.816300
      5 O03          6.2410    -0.0060    -1.9260 o          1 JL7      -0.816300
      6 C04          3.9020     0.0010    -2.6330 cc         1 JL7       0.350800
      7 C05          2.9510     0.0020    -3.6100 cd         1 JL7      -0.157400
      8 S06          1.4040     0.0010    -2.8790 ss         1 JL7      -0.316300
      9 C07          2.1380     0.0000    -1.2790 cd         1 JL7       0.450900
     10 N08          3.4310    -0.0050    -1.3940 nc         1 JL7      -0.589000
     11 C09          1.3960     0.0000     0.0000 ca         1 JL7      -0.051500
     12 C11         -0.6870     0.0000     1.1970 ca         1 JL7      -0.089000
     13 C12          0.0050     0.0010     2.3950 ca         1 JL7      -0.199300
     14 C14          2.0870     0.0000     1.2120 ca         1 JL7      -0.120000
     15 F16          0.0020     0.6610     4.6740 f          1 JL7      -0.231300
     16 F17         -1.9740     0.6610     3.5270 f          1 JL7      -0.231300
     17 F18         -0.9870    -1.3170     4.1020 f          1 JL7      -0.231300
     18 H101        -0.5430    -0.0010    -0.9380 ha         1 JL7       0.160000
     19 H131         1.9240     0.0010     3.3430 ha         1 JL7       0.138000
     20 H051         3.1430     0.0040    -4.6760 h4         1 JL7       0.193000
     21 H111        -1.7700    -0.0000     1.1980 ha         1 JL7       0.138000
     22 H141         3.1700     0.0000     1.2190 ha         1 JL7       0.160000
     23 C02          5.3430     0.0000    -2.9330 c          1 JL7       0.796100
@<TRIPOS>BOND
     1     8     7 1
     2     8     9 1
     3     7     6 2
     4     1    12 ar
     5     1    11 ar
     6    12    13 ar
     7     4    23 1
     8    16     3 1
     9     9    11 1
    10     9    10 2
    11     6    23 1
    12     6    10 1
    13    11    14 ar
    14    15     3 1
    15    23     5 1
    16    13     3 1
    17    13     2 ar
    18     3    17 1
    19    14     2 ar
    20     1    18 1
    21     2    19 1
    22     7    20 1
    23    12    21 1
    24    14    22 1
@<TRIPOS>SUBSTRUCTURE
     1 JL7         1 TEMP              0 ****  ****    0 ROOT
