@<TRIPOS>MOLECULE
molecule
   47    50     1     0     0
SMALL
bcc


@<TRIPOS>ATOM
      1 CAA          0.0000     0.0000     0.0000 ca         1 JL9      -0.246300
      2 CAB          1.3820     0.0000     0.0000 ca         1 JL9       0.420200
      3 NAC          2.0560     0.0000     1.1330 nb         1 JL9      -0.688000
      4 CAD          1.4470    -0.0000     2.3030 ca         1 JL9       0.420200
      5 CAE          0.0670    -0.0020     2.3810 ca         1 JL9      -0.246300
      6 CAF         -0.6760    -0.0010     1.2110 ca         1 JL9      -0.049300
      7 CAG         -2.1830    -0.0020     1.2530 c3         1 JL9       0.207100
      8 NAH         -2.6720    -1.3860     1.2660 n3         1 JL9      -0.726600
      9 CAI         -4.1270    -1.4320     1.0700 c3         1 JL9       0.140300
     10 CAJ         -4.5710    -2.8900     0.9090 c3         1 JL9       0.241300
     11 CAM         -2.2800    -2.0720     2.5060 c3         1 JL9       0.140300
     12 CAL         -2.6480    -3.5550     2.4030 c3         1 JL9       0.241300
     13 NAK         -4.0750    -3.6600     2.0590 nh         1 JL9      -0.784600
     14 CAN         -4.9180    -4.4510     2.7910 cc         1 JL9       0.732800
     15 NAT         -6.2070    -4.4400     2.5310 nd         1 JL9      -0.753300
     16 CAS         -7.0740    -5.1990     3.2120 cd         1 JL9       0.241400
     17 CAU         -8.5300    -5.1060     2.8400 c3         1 JL9      -0.026200
     18 CAV         -9.3010    -6.3090     3.3820 c3         1 JL9      -0.083400
     19 CAW         -8.9800    -6.4560     4.8740 c3         1 JL9      -0.085400
     20 CAX         -7.5240    -6.9010     5.0110 c3         1 JL9      -0.000200
     21 CAR         -6.6210    -6.0080     4.2030 cc         1 JL9      -0.315400
     22 CAP         -5.2400    -6.0220     4.4960 c          1 JL9       0.708700
     23 OAQ         -4.8030    -6.7320     5.3860 o          1 JL9      -0.650500
     24 NAO         -4.4090    -5.2430     3.7730 ns         1 JL9      -0.478400
     25 HAA         -0.5480     0.0000    -0.9340 ha         1 JL9       0.139500
     26 HAB          1.9180     0.0000    -0.9420 h4         1 JL9       0.024600
     27 HAD          2.0350    -0.0010     3.2130 h4         1 JL9       0.024600
     28 HAE         -0.4270    -0.0020     3.3450 ha         1 JL9       0.139500
     29 HAG1        -2.5690     0.5100     0.3800 h1         1 JL9       0.046700
     30 HAG2        -2.5190     0.5080     2.1480 h1         1 JL9       0.046700
     31 HAI1        -4.6210    -0.9980     1.9310 h1         1 JL9       0.049200
     32 HAI2        -4.3880    -0.8760     0.1780 h1         1 JL9       0.049200
     33 HAM1        -1.2100    -1.9750     2.6480 h1         1 JL9       0.049200
     34 HAM2        -2.8030    -1.6280     3.3440 h1         1 JL9       0.049200
     35 HAJ1        -5.6530    -2.9380     0.8790 h1         1 JL9       0.066950
     36 HAJ2        -4.1570    -3.2960    -0.0060 h1         1 JL9       0.066950
     37 HAL1        -2.4680    -4.0410     3.3550 h1         1 JL9       0.066950
     38 HAL2        -2.0520    -4.0250     1.6300 h1         1 JL9       0.066950
     39 HAO         -3.4250    -5.2480     3.9580 hn         1 JL9       0.331500
     40 HAU1        -8.6210    -5.0820     1.7610 hc         1 JL9       0.062200
     41 HAU2        -8.9470    -4.1980     3.2590 hc         1 JL9       0.062200
     42 HAV1       -10.3640    -6.1480     3.2540 hc         1 JL9       0.046700
     43 HAV2        -8.9960    -7.2050     2.8550 hc         1 JL9       0.046700
     44 HAW1        -9.1010    -5.4940     5.3580 hc         1 JL9       0.046200
     45 HAW2        -9.6230    -7.2170     5.3000 hc         1 JL9       0.046200
     46 HAX1        -7.2380    -6.8300     6.0530 hc         1 JL9       0.057700
     47 HAX2        -7.4360    -7.9130     4.6340 hc         1 JL9       0.057700
@<TRIPOS>BOND
     1     1     2 ar
     2     1     6 ar
     3     2     3 ar
     4     3     4 ar
     5     4     5 ar
     6     5     6 ar
     7     6     7 1
     8     7     8 1
     9     8     9 1
    10     8    11 1
    11     9    10 1
    12    10    13 1
    13    11    12 1
    14    12    13 1
    15    13    14 1
    16    14    15 2
    17    14    24 1
    18    15    16 1
    19    16    17 1
    20    16    21 2
    21    17    18 1
    22    18    19 1
    23    19    20 1
    24    20    21 1
    25    21    22 1
    26    22    23 2
    27    22    24 1
    28     1    25 1
    29     2    26 1
    30     4    27 1
    31     5    28 1
    32     7    29 1
    33     7    30 1
    34     9    31 1
    35     9    32 1
    36    11    33 1
    37    11    34 1
    38    10    35 1
    39    10    36 1
    40    12    37 1
    41    12    38 1
    42    24    39 1
    43    17    40 1
    44    17    41 1
    45    18    42 1
    46    18    43 1
    47    19    44 1
    48    19    45 1
    49    20    46 1
    50    20    47 1
@<TRIPOS>SUBSTRUCTURE
     1 JL9         1 TEMP              0 ****  ****    0 ROOT
