@<TRIPOS>MOLECULE
molecule
   29    30     1     0     0
SMALL
bcc


@<TRIPOS>ATOM
      1 C13          0.0000     0.0000     0.0000 c3         1 JLA      -0.081400
      2 C15          0.0610    -1.1860     2.1960 c3         1 JLA       0.167800
      3 O01          3.0050    -1.6720     8.2740 o          1 JLA      -0.841800
      4 O03          5.0740    -1.6090     7.4670 o          1 JLA      -0.841800
      5 C04          3.1590    -1.4890     5.9540 ca         1 JLA      -0.119600
      6 C05          3.9970    -1.4070     4.8380 ca         1 JLA      -0.083000
      7 C06          3.4560    -1.3080     3.5820 ca         1 JLA      -0.193500
      8 C07          2.0730    -1.2890     3.4170 ca         1 JLA       0.065600
      9 C08          1.2360    -1.3710     4.5250 ca         1 JLA      -0.193500
     10 C09          1.7700    -1.4760     5.7840 ca         1 JLA      -0.083000
     11 N10          1.5290    -1.1880     2.1410 nh         1 JLA      -0.596000
     12 C11          2.0360     0.0000     1.4440 c3         1 JLA       0.167800
     13 C12          1.5310     0.0000     0.0000 c3         1 JLA      -0.082400
     14 C14         -0.5030    -1.2210     0.7740 c3         1 JLA      -0.082400
     15 H132        -0.3610     0.9030     0.4770 hc         1 JLA       0.032200
     16 H131        -0.3610    -0.0460    -1.0200 hc         1 JLA       0.032200
     17 H152        -0.2790    -0.2880     2.6960 h1         1 JLA       0.040950
     18 H151        -0.2800    -2.0590     2.7390 h1         1 JLA       0.040950
     19 H051         5.0710    -1.4580     4.9620 ha         1 JLA       0.149000
     20 H061         4.1040    -1.2790     2.7140 ha         1 JLA       0.111000
     21 H081         0.1610    -1.3580     4.3930 ha         1 JLA       0.111000
     22 H091         1.1180    -1.5060     6.6480 ha         1 JLA       0.149000
     23 H112         3.1200    -0.0170     1.4470 h1         1 JLA       0.040950
     24 H111         1.6830     0.8910     1.9490 h1         1 JLA       0.040950
     25 H122         1.8920    -0.8860    -0.5080 hc         1 JLA       0.040700
     26 H121         1.8920     0.8860    -0.5080 hc         1 JLA       0.040700
     27 H141        -0.1710    -2.1250     0.2760 hc         1 JLA       0.040700
     28 H142        -1.5850    -1.2020     0.8140 hc         1 JLA       0.040700
     29 C02          3.7350    -1.5960     7.3050 c          1 JLA       0.883200
@<TRIPOS>BOND
     1    14     1 1
     2    14     2 1
     3     1    13 1
     4     2    11 1
     5     7     6 ar
     6     7     8 ar
     7    11     8 1
     8    11    12 1
     9    13    12 1
    10     6     5 ar
    11     8     9 ar
    12     3    29 1
    13     5    29 1
    14     5    10 ar
    15     9    10 ar
    16    29     4 1
    17     1    15 1
    18     1    16 1
    19     2    17 1
    20     2    18 1
    21     6    19 1
    22     7    20 1
    23     9    21 1
    24    10    22 1
    25    12    23 1
    26    12    24 1
    27    13    25 1
    28    13    26 1
    29    14    27 1
    30    14    28 1
@<TRIPOS>SUBSTRUCTURE
     1 JLA         1 TEMP              0 ****  ****    0 ROOT
