@<TRIPOS>MOLECULE
molecule
   34    35     1     0     0
SMALL
bcc


@<TRIPOS>ATOM
      1 C10          0.0000     0.0000     0.0000 ca         1 JLD      -0.097300
      2 C13          1.3810     0.0010     2.3960 ca         1 JLD       0.128900
      3 C15         -0.0040     0.0070     2.3940 ca         1 JLD      -0.166000
      4 N02         -3.2730     0.0040    -2.7170 n3         1 JLD      -0.732600
      5 C03         -2.4400     1.2140    -2.6890 c3         1 JLD       0.161800
      6 C04         -1.6330     1.2500    -1.3890 c3         1 JLD      -0.069400
      7 C05         -0.7520    -0.0000    -1.3060 c3         1 JLD      -0.022400
      8 C06         -1.6400    -1.2460    -1.3850 c3         1 JLD      -0.059700
      9 C07         -0.7630    -2.5000    -1.3630 c3         1 JLD       0.140400
     10 O08         -1.5950    -3.6620    -1.3200 oh         1 JLD      -0.611800
     11 C09         -2.4470    -1.2090    -2.6850 c3         1 JLD       0.169800
     12 C11          1.3820     0.0000     0.0000 ca         1 JLD      -0.101000
     13 C12          2.0730     0.0000     1.1970 ca         1 JLD      -0.166000
     14 F14          2.0550     0.0010     3.5660 f          1 JLD      -0.141900
     15 C16         -0.6930     0.0060     1.1960 ca         1 JLD      -0.101000
     16 H151        -0.5480     0.0090     3.3310 ha         1 JLD       0.145000
     17 H013        -4.8050    -0.8680    -3.8500 h1         1 JLD       0.032033
     18 H011        -4.7730     0.9010    -3.8730 h1         1 JLD       0.032033
     19 H012        -3.5720    -0.0180    -4.7910 h1         1 JLD       0.032033
     20 H032        -1.7610     1.2030    -3.5340 h1         1 JLD       0.034200
     21 H042        -1.0060     2.1330    -1.3780 hc         1 JLD       0.053700
     22 H041        -2.3110     1.2700    -0.5440 hc         1 JLD       0.053700
     23 H051        -0.0520    -0.0040    -2.1330 hc         1 JLD       0.054700
     24 H061        -2.3180    -1.2580    -0.5410 hc         1 JLD       0.079700
     25 H072        -0.1260    -2.4790    -0.4870 h1         1 JLD       0.025200
     26 H071        -0.1500    -2.5270    -2.2550 h1         1 JLD       0.025200
     27 H081        -1.0580    -4.4280    -1.2000 ho         1 JLD       0.402000
     28 H092        -1.7690    -1.2050    -3.5300 h1         1 JLD       0.042200
     29 H091        -3.0880    -2.0810    -2.7350 h1         1 JLD       0.042200
     30 H111         1.9230    -0.0010    -0.9380 ha         1 JLD       0.140500
     31 H121         3.1560    -0.0020     1.1960 ha         1 JLD       0.145000
     32 H161        -1.7760     0.0100     1.1950 ha         1 JLD       0.140500
     33 H031        -3.0760     2.0890    -2.7420 h1         1 JLD       0.034200
     34 C01         -4.1640     0.0050    -3.8840 c3         1 JLD       0.155100
@<TRIPOS>BOND
     1    14     2 1
     2     2     3 ar
     3     2    13 ar
     4     3    15 ar
     5     9    10 1
     6     9     8 1
     7    13    12 ar
     8    15     1 ar
     9    12     1 ar
    10     1     7 1
    11     8     7 1
    12     8    11 1
    13     7     6 1
    14    11     4 1
    15     6     5 1
    16     4     5 1
    17     4    34 1
    18     3    16 1
    19    34    17 1
    20    34    18 1
    21    34    19 1
    22     5    33 1
    23     5    20 1
    24     6    21 1
    25     6    22 1
    26     7    23 1
    27     8    24 1
    28     9    25 1
    29     9    26 1
    30    10    27 1
    31    11    28 1
    32    11    29 1
    33    12    30 1
    34    13    31 1
    35    15    32 1
@<TRIPOS>SUBSTRUCTURE
     1 JLD         1 TEMP              0 ****  ****    0 ROOT
