@<TRIPOS>MOLECULE
molecule
   17    18     1     0     0
SMALL
bcc


@<TRIPOS>ATOM
      1 C10          0.0000     0.0000     0.0000 cc         1 JLG      -0.186000
      2 O01          6.0180    -0.0040    -3.6880 o          1 JLG      -0.818300
      3 O03          6.3440     0.0130    -1.4910 o          1 JLG      -0.818300
      4 C04          4.0770    -0.0020    -2.3980 cc         1 JLG       0.352800
      5 C05          3.2230    -0.0140    -3.4470 cd         1 JLG      -0.166400
      6 S06          1.6160    -0.0160    -2.8610 ss         1 JLG      -0.311300
      7 C07          2.2010    -0.0020    -1.2020 cd         1 JLG       0.489900
      8 N08          3.5010    -0.0020    -1.2020 nc         1 JLG      -0.597000
      9 C09          1.3510     0.0000     0.0000 cd         1 JLG      -0.019600
     10 C11         -0.5750     0.0060     1.2520 cd         1 JLG      -0.154000
     11 C12          0.2880     0.0110     2.2740 cc         1 JLG      -0.125100
     12 S13          1.9370     0.0000     1.6590 ss         1 JLG      -0.066800
     13 H101        -0.5850    -0.0040    -0.9120 ha         1 JLG       0.146000
     14 H051         3.5110    -0.0200    -4.4910 h4         1 JLG       0.192000
     15 H111        -1.6490     0.0090     1.3990 ha         1 JLG       0.131000
     16 H121         0.0140     0.0150     3.3220 h4         1 JLG       0.157000
     17 C02          5.5380     0.0020    -2.5710 c          1 JLG       0.796100
@<TRIPOS>BOND
     1    11    10 2
     2    11    12 1
     3    10     1 1
     4    12     9 1
     5     1     9 2
     6     9     7 1
     7     7     8 2
     8     7     6 1
     9     8     4 1
    10     6     5 1
    11     4     5 2
    12     4    17 1
    13     2    17 1
    14    17     3 1
    15     1    13 1
    16     5    14 1
    17    10    15 1
    18    11    16 1
@<TRIPOS>SUBSTRUCTURE
     1 JLG         1 TEMP              0 ****  ****    0 ROOT
