@<TRIPOS>MOLECULE
JLJ
   41    42     1     0     0
SMALL
bcc


@<TRIPOS>ATOM
      1 C11          0.0000     0.0000     0.0000 ca         1 JLJ       0.741900
      2 N12          1.3240     0.0000     0.0000 nb         1 JLJ      -0.761000
      3 C13          2.0010     0.0000     1.1420 ca         1 JLJ       0.689600
      4 C14          1.2970     0.0000     2.3460 ca         1 JLJ      -0.419600
      5 C15         -0.0840     0.0000     2.3030 ca         1 JLJ       0.508200
      6 N16         -0.6950     0.0000     1.1280 nb         1 JLJ      -0.724000
      7 O17          3.3560     0.0000     1.1390 os         1 JLJ      -0.421100
      8 C18          4.0010    -0.0010    -0.1370 c3         1 JLJ       0.248700
      9 N19         -0.6760     0.0050    -1.2100 nu         1 JLJ      -0.299300
     10 C20         -4.8310    -0.3270    -1.2720 ca         1 JLJ      -0.145000
     11 C21         -4.1740     0.4510    -2.2380 ca         1 JLJ       0.205100
     12 C22         -2.7940     0.5580    -2.2120 ca         1 JLJ      -0.183000
     13 C23         -2.0650    -0.1040    -1.2330 ca         1 JLJ       0.043600
     14 C24         -2.7160    -0.8770    -0.2750 ca         1 JLJ      -0.116000
     15 C25         -4.0870    -0.9850    -0.2870 ca         1 JLJ      -0.045000
     16 N27         -7.3910    -0.5360    -1.2880 n1         1 JLJ      -0.488800
     17 C28         -6.2580    -0.4420    -1.2920 cg         1 JLJ       0.362800
     18 C41         -6.0710     0.5650    -3.0420 c3         1 JLJ      -0.015400
     19 C42         -6.4000    -0.3450    -4.1160 c2         1 JLJ      -0.223200
     20 C43         -7.3840    -0.8190    -4.8730 c2         1 JLJ      -0.093400
     21 C44         -7.2160    -2.0200    -5.5970 c3         1 JLJ       0.043600
     22 C45         -8.5310     0.0140    -4.3170 c3         1 JLJ       0.043600
     23 H1           1.8370    -0.0070     3.2850 ha         1 JLJ       0.137000
     24 H2          -0.6860    -0.5450     3.0200 h4         1 JLJ      -0.010900
     25 H3           3.4800     0.3860    -1.0040 h1         1 JLJ       0.006700
     26 H4           4.9350     0.4910     0.1070 h1         1 JLJ       0.006700
     27 H5           4.1890    -1.0510    -0.3250 h1         1 JLJ       0.006700
     28 H6          -0.2410    -0.2140    -2.0840 hn         1 JLJ       0.294800
     29 H7          -1.9920     1.1230    -2.6700 ha         1 JLJ       0.137000
     30 H8          -2.4310    -1.5340     0.5380 ha         1 JLJ       0.137000
     31 H9          -4.9190    -1.3710     0.2900 ha         1 JLJ       0.127000
     32 H10         -6.8650     1.1820    -3.4460 h1         1 JLJ       0.121200
     33 H11         -6.6420     0.6040    -2.1220 h1         1 JLJ       0.121200
     34 H12         -5.4510    -0.8430    -4.2780 ha         1 JLJ       0.061000
     35 H13         -7.4370    -1.6540    -6.5920 hc         1 JLJ       0.017367
     36 H14         -6.4360    -2.7430    -5.3920 hc         1 JLJ       0.017367
     37 H15         -8.1760    -2.5090    -5.7130 hc         1 JLJ       0.017367
     38 H16         -9.4350    -0.3590    -4.7840 hc         1 JLJ       0.017367
     39 H17         -8.3640     1.0680    -4.5000 hc         1 JLJ       0.017367
     40 H18         -9.0360    -0.3340    -3.4240 hc         1 JLJ       0.017367
     41 O26         -4.8890     1.0960    -3.1940 os         1 JLJ      -0.200900
@<TRIPOS>BOND
     1     1     2 ar  
     2     1     6 ar  
     3     1     9 1   
     4     2     3 ar  
     5     3     4 ar  
     6     3     7 1   
     7     4     5 ar  
     8     4    23 1   
     9     5     6 ar  
    10     5    24 1   
    11     7     8 1   
    12     8    25 1   
    13     8    26 1   
    14     8    27 1   
    15     9    13 1   
    16     9    28 1   
    17    10    11 ar  
    18    10    15 ar  
    19    10    17 1   
    20    11    12 ar  
    21    11    41 1   
    22    12    13 ar  
    23    12    29 1   
    24    13    14 ar  
    25    14    15 ar  
    26    14    30 1   
    27    15    31 1   
    28    16    17 3   
    29    18    19 1   
    30    18    32 1   
    31    18    33 1   
    32    18    41 1   
    33    19    20 2   
    34    19    34 1   
    35    20    21 1   
    36    20    22 1   
    37    21    35 1   
    38    21    36 1   
    39    21    37 1   
    40    22    38 1   
    41    22    39 1   
    42    22    40 1   
@<TRIPOS>SUBSTRUCTURE
     1 JLJ         1 TEMP              0 ****  ****    0 ROOT
