@<TRIPOS>MOLECULE
molecule
   41    42     1     0     0
SMALL
bcc


@<TRIPOS>ATOM
      1 C11          0.0000     0.0000     0.0000 ca         1 JLJ       0.961900
      2 N12          1.3240     0.0000     0.0000 nb         1 JLJ      -0.871000
      3 C13          2.0010     0.0000     1.1420 ca         1 JLJ       0.706600
      4 C14          1.2970     0.0000     2.3460 ca         1 JLJ      -0.445600
      5 C15         -0.0840     0.0000     2.3030 ca         1 JLJ       0.527200
      6 N16         -0.6950     0.0000     1.1280 nb         1 JLJ      -0.810000
      7 O17          3.3560     0.0000     1.1390 os         1 JLJ      -0.417100
      8 C18          4.0010    -0.0010    -0.1370 c3         1 JLJ       0.117700
      9 N19         -0.6760     0.0050    -1.2100 nu         1 JLJ      -0.752300
     10 C20         -4.8310    -0.3270    -1.2720 ca         1 JLJ      -0.035000
     11 C21         -4.1740     0.4510    -2.2380 ca         1 JLJ       0.165100
     12 C22         -2.7940     0.5580    -2.2120 ca         1 JLJ      -0.195000
     13 C23         -2.0650    -0.1040    -1.2330 ca         1 JLJ       0.180600
     14 C24         -2.7160    -0.8770    -0.2750 ca         1 JLJ      -0.152000
     15 C25         -4.0870    -0.9850    -0.2870 ca         1 JLJ      -0.071000
     16 N27         -7.3910    -0.5230    -1.3240 n1         1 JLJ      -0.362800
     17 C28         -6.2580    -0.4420    -1.2920 cg         1 JLJ       0.251800
     18 C41         -4.7770     2.4210    -3.0160 c3         1 JLJ       0.102600
     19 C42         -5.8580     3.3250    -3.4050 c2         1 JLJ      -0.303200
     20 C43         -5.8210     3.7180    -4.7170 c2         1 JLJ       0.000600
     21 C44         -4.9150     3.3430    -5.9100 c3         1 JLJ      -0.103900
     22 C45         -6.9460     4.5680    -5.3050 c3         1 JLJ      -0.103900
     23 H1           2.0150     0.1300     3.1460 ha         1 JLJ       0.164000
     24 H2          -0.6590     0.1500     3.2090 h4         1 JLJ       0.038100
     25 H3           3.9260    -1.0460    -0.4120 h1         1 JLJ       0.053033
     26 H4           3.7470     0.5750    -1.0180 h1         1 JLJ       0.053033
     27 H5           5.0380    -0.1690     0.1270 h1         1 JLJ       0.053033
     28 H6          -0.1500    -0.1450    -2.0480 hn         1 JLJ       0.464800
     29 H7          -2.1110     1.0970    -2.8570 ha         1 JLJ       0.150000
     30 H8          -2.1710    -1.4050     0.4990 ha         1 JLJ       0.164000
     31 H9          -4.3840    -1.7170     0.4550 ha         1 JLJ       0.151000
     32 H10         -4.1160     2.7330    -2.2160 h1         1 JLJ       0.025200
     33 H11         -4.0280     2.3960    -3.7980 h1         1 JLJ       0.025200
     34 H12         -6.1950     2.3100    -3.5790 ha         1 JLJ       0.214000
     35 H13         -4.5610     2.4560    -5.4000 hc         1 JLJ       0.064200
     36 H14         -4.0560     3.9890    -6.0430 hc         1 JLJ       0.064200
     37 H15         -5.6690     3.1250    -6.6560 hc         1 JLJ       0.064200
     38 H16         -6.5640     5.0660    -6.1880 hc         1 JLJ       0.064200
     39 H17         -7.8910     4.0420    -5.3740 hc         1 JLJ       0.064200
     40 H18         -7.0550     5.3590    -4.5730 hc         1 JLJ       0.064200
     41 O26         -4.8890     1.0960    -3.1940 os         1 JLJ      -0.331900
@<TRIPOS>BOND
     1     6     5 ar
     2     6     1 ar
     3    14    15 ar
     4    14    13 ar
     5     9     1 1
     6     9    13 1
     7     5     4 ar
     8    15    10 ar
     9     1     2 ar
    10    13    12 ar
    11     4     3 ar
    12    10    17 1
    13    10    11 ar
    14     2     3 ar
    15    12    11 ar
    16    17    16 3
    17     3     7 1
    18    11    41 1
    19     7     8 1
    20    41    18 1
    21    19    18 1
    22    19    20 2
    23    22    20 1
    24    20    21 1
    25     4    23 1
    26     5    24 1
    27     8    25 1
    28     8    26 1
    29     8    27 1
    30     9    28 1
    31    12    29 1
    32    14    30 1
    33    15    31 1
    34    18    32 1
    35    18    33 1
    36    19    34 1
    37    21    35 1
    38    21    36 1
    39    21    37 1
    40    22    38 1
    41    22    39 1
    42    22    40 1
@<TRIPOS>SUBSTRUCTURE
     1 JLJ         1 TEMP              0 ****  ****    0 ROOT
