@<TRIPOS>MOLECULE
molecule
   41    43     1     0     0
SMALL
bcc


@<TRIPOS>ATOM
      1 C2           0.0000     0.0000     0.0000 ca         1 JLO      -0.121800
      2 C3           1.3940     0.0000     0.0000 ca         1 JLO       0.147600
      3 C4           2.0860     0.0000     1.2110 ca         1 JLO      -0.121800
      4 C5           1.3970    -0.0490     2.3960 ca         1 JLO      -0.087500
      5 C6          -0.0000    -0.0790     2.4010 ca         1 JLO      -0.107800
      6 C1          -0.6890    -0.0490     1.1860 ca         1 JLO      -0.087500
      7 C17          3.5840     0.0770     1.3010 c3         1 JLO      -0.028600
      8 C16          4.2410     0.1480    -0.0690 c3         1 JLO      -0.082400
      9 C15          3.4080    -0.6490    -1.0720 c3         1 JLO       0.168800
     10 N1           2.0920    -0.0110    -1.2010 nh         1 JLO      -0.592000
     11 C12         -0.8210     0.0750    -1.2580 c3         1 JLO      -0.028600
     12 C13          0.0430     0.1440    -2.5070 c3         1 JLO      -0.082400
     13 C14          1.3270    -0.6520    -2.2790 c3         1 JLO       0.168800
     14 C7          -0.7350    -0.1410     3.6690 ce         1 JLO      -0.057200
     15 C8          -2.0930    -0.1700     3.6650 cf         1 JLO      -0.173000
     16 C9          -2.7980    -0.2290     4.8800 cf         1 JLO      -0.001200
     17 C10         -4.1620    -0.2580     4.8760 ce         1 JLO      -0.291200
     18 C11         -4.8650    -0.3160     6.0870 c          1 JLO       0.562100
     19 C18         -2.0470    -0.2600     6.1870 c3         1 JLO      -0.076900
     20 H1           1.9390    -0.0720     3.3340 ha         1 JLO       0.133000
     21 H2          -1.7720    -0.0720     1.1800 ha         1 JLO       0.133000
     22 H3           3.9490    -0.8020     1.8180 hc         1 JLO       0.050950
     23 H4           3.8560     0.9610     1.8650 hc         1 JLO       0.050950
     24 H5           5.2370    -0.2730    -0.0140 hc         1 JLO       0.053950
     25 H6           4.2970     1.1820    -0.3890 hc         1 JLO       0.053950
     26 H7           3.9050    -0.6530    -2.0350 h1         1 JLO       0.043450
     27 H8           3.2850    -1.6650    -0.7160 h1         1 JLO       0.043450
     28 H9          -1.4510    -0.8050    -1.3170 hc         1 JLO       0.050950
     29 H10         -1.4460     0.9590    -1.2160 hc         1 JLO       0.050950
     30 H11         -0.5000    -0.2790    -3.3440 hc         1 JLO       0.053950
     31 H12          0.2910     1.1770    -2.7160 hc         1 JLO       0.053950
     32 H13          1.0790    -1.6670    -1.9940 h1         1 JLO       0.043450
     33 H14          1.9160    -0.6570    -3.1880 h1         1 JLO       0.043450
     34 H15         -0.1960    -0.1630     4.6080 ha         1 JLO       0.134000
     35 H16         -2.6330    -0.1480     2.7260 ha         1 JLO       0.140000
     36 H17         -4.7020    -0.2360     3.9370 ha         1 JLO       0.151000
     37 H18         -4.3250    -0.3560     7.0260 h4         1 JLO      -0.012800
     38 H21         -1.1440     0.3320     6.0990 hc         1 JLO       0.052033
     39 H22         -1.7860    -1.2830     6.4290 hc         1 JLO       0.052033
     40 H23         -2.6720     0.1490     6.9720 hc         1 JLO       0.052033
     41 O1          -6.0810    -0.3430     6.0850 o          1 JLO      -0.538100
@<TRIPOS>BOND
     1     8     9 1
     2     8     7 1
     3     9    10 1
     4    13    10 1
     5    13    12 1
     6     7     3 1
     7    10     2 1
     8    12    11 1
     9     2     3 ar
    10     2     1 ar
    11     3     4 ar
    12    11     1 1
    13     1     6 ar
    14     4     5 ar
    15     6     5 ar
    16     5    14 1
    17    15    14 2
    18    15    16 1
    19    17    16 2
    20    17    18 1
    21    16    19 1
    22     4    20 1
    23     6    21 1
    24     7    22 1
    25     7    23 1
    26     8    24 1
    27     8    25 1
    28     9    26 1
    29     9    27 1
    30    11    28 1
    31    11    29 1
    32    12    30 1
    33    12    31 1
    34    13    32 1
    35    13    33 1
    36    14    34 1
    37    15    35 1
    38    17    36 1
    39    18    37 1
    40    19    38 1
    41    19    39 1
    42    19    40 1
    43    18    41 2
@<TRIPOS>SUBSTRUCTURE
     1 JLO         1 TEMP              0 ****  ****    0 ROOT
