@<TRIPOS>MOLECULE
JLO
   41    46     1     0     0
SMALL
bcc


@<TRIPOS>ATOM
      1 C2           0.0000     0.0000     0.0000 c2         1 JLO      -0.094000
      2 C3           1.3940     0.0000     0.0000 c2         1 JLO      -0.032000
      3 C4           2.0860     0.0000     1.2110 c2         1 JLO      -0.094000
      4 C5           1.3970    -0.0490     2.3960 c2         1 JLO      -0.106000
      5 C6          -0.0000    -0.0790     2.4010 c3         1 JLO      -0.069000
      6 C1          -0.6890    -0.0490     1.1860 c2         1 JLO      -0.106000
      7 C17          3.5840     0.0770     1.3010 c3         1 JLO      -0.046500
      8 C16          4.2410     0.1480    -0.0690 c3         1 JLO      -0.107000
      9 C15          3.4080    -0.6490    -1.0720 c3         1 JLO      -0.095000
     10 N1           2.0920    -0.0110    -1.2010 n3         1 JLO       0.061000
     11 C12         -0.8210     0.0750    -1.2580 c3         1 JLO      -0.046500
     12 C13          0.0430     0.1440    -2.5070 c3         1 JLO      -0.107000
     13 C14          1.3270    -0.6520    -2.2790 c3         1 JLO      -0.095000
     14 C7          -0.7350    -0.1410     3.6690 c2         1 JLO      -0.202000
     15 C8          -2.0930    -0.1700     3.6650 c2         1 JLO       0.110000
     16 C9          -2.7980    -0.2290     4.8800 c3         1 JLO       0.210000
     17 C10         -4.1620    -0.2580     4.8760 c2         1 JLO      -0.543000
     18 C11         -4.8650    -0.3160     6.0870 c3         1 JLO       0.309000
     19 C18         -2.0470    -0.2600     6.1870 c3         1 JLO      -0.132000
     20 H1           1.9390    -0.0720     3.3340 ha         1 JLO       0.124000
     21 H2          -1.7720    -0.0720     1.1800 ha         1 JLO       0.124000
     22 H3           3.8560     0.9610     1.8650 hc         1 JLO       0.063500
     23 H4           3.9490    -0.8020     1.8180 hc         1 JLO       0.063500
     24 H5           5.2370    -0.2730    -0.0140 hc         1 JLO       0.064750
     25 H6           4.2970     1.1820    -0.3890 hc         1 JLO       0.064750
     26 H7           3.9050    -0.6530    -2.0350 h1         1 JLO       0.056250
     27 H8           3.2850    -1.6650    -0.7160 h1         1 JLO       0.056250
     28 H9          -1.4510    -0.8050    -1.3170 hc         1 JLO       0.063500
     29 H10         -1.4460     0.9590    -1.2160 hc         1 JLO       0.063500
     30 H11         -0.5000    -0.2790    -3.3440 hc         1 JLO       0.064750
     31 H12          0.2910     1.1770    -2.7160 hc         1 JLO       0.064750
     32 H13          1.0790    -1.6670    -1.9940 h1         1 JLO       0.056250
     33 H14          1.9160    -0.6570    -3.1880 h1         1 JLO       0.056250
     34 H15         -0.5690    -0.9890     3.0170 DU         1 JLO       0.174000
     35 H16         -2.2220    -1.0700     4.2540 DU         1 JLO       0.042000
     36 H17         -4.2900    -1.1580     5.4670 DU         1 JLO       0.121000
     37 H18         -4.3270    -0.3030     7.0270 h1         1 JLO       0.001000
     38 H21         -2.2000    -1.2180     6.6680 hc         1 JLO       0.075667
     39 H22         -2.4120     0.5300     6.8320 hc         1 JLO       0.075667
     40 H23         -0.9900    -0.1140     6.0000 hc         1 JLO       0.075667
     41 O1          -6.0810    -0.3430     6.0850 o          1 JLO      -0.365000
@<TRIPOS>BOND
     1     1     2 1   
     2     1     6 1   
     3     1    11 1   
     4     2     3 1   
     5     2    10 1   
     6     3     4 1   
     7     3     7 1   
     8     4     5 1   
     9     4    20 1   
    10     5     6 1   
    11     5    14 1   
    12     5    34 1   
    13     6    21 1   
    14     7     8 1   
    15     7    22 1   
    16     7    23 1   
    17     8     9 1   
    18     8    24 1   
    19     8    25 1   
    20     9    10 1   
    21     9    26 1   
    22     9    27 1   
    23    10    13 1   
    24    11    12 1   
    25    11    28 1   
    26    11    29 1   
    27    12    13 1   
    28    12    30 1   
    29    12    31 1   
    30    13    32 1   
    31    13    33 1   
    32    14    15 1   
    33    14    34 1   
    34    15    16 1   
    35    15    35 1   
    36    16    17 1   
    37    16    19 1   
    38    16    35 1   
    39    17    18 1   
    40    17    36 1   
    41    18    36 1   
    42    18    37 1   
    43    18    41 1   
    44    19    38 1   
    45    19    39 1   
    46    19    40 1   
@<TRIPOS>SUBSTRUCTURE
     1 JLO         1 TEMP              0 ****  ****    0 ROOT
