@<TRIPOS>MOLECULE
JLV
   27    27     1     0     0
SMALL
bcc


@<TRIPOS>ATOM
      1 C10          0.0000     0.0000     0.0000 c3         1 JLV      -0.015400
      2 C01         -3.4890     3.5410     4.6760 c3         1 JLV       0.059300
      3 N02         -2.1610     3.5430     4.0590 ns         1 JLV      -0.069900
      4 C03         -1.7110     2.4430     3.4230 cs         1 JLV       0.275400
      5 S04         -2.6930     1.0430     3.3380 s          1 JLV      -0.731400
      6 N05         -0.4900     2.4450     2.8550 ns         1 JLV      -0.060900
      7 C06         -0.0010     1.2490     2.1640 c3         1 JLV      -0.014300
      8 C07          1.5300     1.2500     2.1640 c3         1 JLV      -0.040900
      9 C08          2.0400     0.0000     1.4430 c3         1 JLV      -0.015400
     10 C09          1.5300     0.0000     0.0000 c3         1 JLV      -0.029400
     11 C11         -0.5100     1.2500     0.7210 c3         1 JLV      -0.040900
     12 H102        -0.3600    -0.8840     0.5130 hc         1 JLV       0.019200
     13 H101        -0.3600     0.0020    -1.0220 hc         1 JLV       0.019200
     14 H012        -3.5300     2.7760     5.4420 h1         1 JLV       0.028367
     15 H013        -3.6810     4.5090     5.1230 h1         1 JLV       0.028367
     16 H011        -4.2380     3.3370     3.9210 h1         1 JLV       0.028367
     17 H021        -1.5840     4.3590     4.1150 hn         1 JLV       0.152500
     18 H051         0.0900     3.2580     2.9160 hn         1 JLV       0.154500
     19 H061        -0.3600     0.3620     2.6710 h1         1 JLV       0.096700
     20 H072         1.8890     1.2470     3.1850 hc         1 JLV       0.022700
     21 H071         1.8890     2.1330     1.6500 hc         1 JLV       0.022700
     22 H082         1.6760    -0.8840     1.9530 hc         1 JLV       0.019200
     23 H081         3.1230     0.0030     1.4410 hc         1 JLV       0.019200
     24 H092         1.8890     0.8860    -0.5090 hc         1 JLV       0.013700
     25 H091         1.8890    -0.8860    -0.5090 hc         1 JLV       0.013700
     26 H112        -0.1460     2.1330     0.2110 hc         1 JLV       0.022700
     27 H111        -1.5940     1.2470     0.7220 hc         1 JLV       0.022700
@<TRIPOS>BOND
     1     1    10 1   
     2     1    11 1   
     3     1    12 1   
     4     1    13 1   
     5     2     3 1   
     6     2    14 1   
     7     2    15 1   
     8     2    16 1   
     9     3     4 1   
    10     3    17 1   
    11     4     5 2   
    12     4     6 1   
    13     6     7 1   
    14     6    18 1   
    15     7     8 1   
    16     7    11 1   
    17     7    19 1   
    18     8     9 1   
    19     8    20 1   
    20     8    21 1   
    21     9    10 1   
    22     9    22 1   
    23     9    23 1   
    24    10    24 1   
    25    10    25 1   
    26    11    26 1   
    27    11    27 1   
@<TRIPOS>SUBSTRUCTURE
     1 JLV         1 TEMP              0 ****  ****    0 ROOT
