@<TRIPOS>MOLECULE
JLY
   30    32     1     0     0
SMALL
bcc


@<TRIPOS>ATOM
      1 C13          0.0000     0.0000     0.0000 cc         1 JLY      -0.014400
      2 C15          1.0240    -0.0130    -2.2620 cc         1 JLY      -0.010100
      3 C17          1.3670     0.0000     0.0000 cd         1 JLY      -0.206900
      4 C01          8.0980     2.0460     0.5260 c3         1 JLY       0.244700
      5 C03          6.2480     0.9040     1.4870 ca         1 JLY       0.161100
      6 C04          5.6740     0.0810     2.4470 ca         1 JLY      -0.185000
      7 C05          4.3290    -0.2140     2.3900 ca         1 JLY      -0.037000
      8 C06          3.5430     0.3150     1.3650 ca         1 JLY      -0.173900
      9 C07          4.1240     1.1420     0.4020 ca         1 JLY      -0.037000
     10 C08          5.4670     1.4370     0.4680 ca         1 JLY      -0.185000
     11 C09          2.0990     0.0000     1.3000 cf         1 JLY       0.527500
     12 N10          1.4220    -0.2860     2.3770 n2         1 JLY      -0.545900
     13 C11          0.0250    -0.6980     2.3670 c3         1 JLY       0.160800
     14 C12         -0.7890     0.0210     1.2910 c3         1 JLY       0.044900
     15 S14         -0.6010    -0.0180    -1.5890 ss         1 JLY      -0.214800
     16 C16          1.9210    -0.0060    -1.2810 cd         1 JLY      -0.103000
     17 H151         1.2580    -0.0150    -3.3190 h4         1 JLY       0.150000
     18 H011         7.9410     1.5880    -0.4430 h1         1 JLY      -0.001967
     19 H012         9.1590     2.1850     0.6930 h1         1 JLY      -0.001967
     20 H013         7.5990     3.0080     0.5560 h1         1 JLY      -0.001967
     21 H041         6.2840    -0.3300     3.2420 ha         1 JLY       0.119500
     22 H051         3.8820    -0.8560     3.1390 ha         1 JLY       0.117500
     23 H071         3.5160     1.5560    -0.3940 ha         1 JLY       0.117500
     24 H081         5.9180     2.0790    -0.2800 ha         1 JLY       0.119500
     25 H111        -0.0020    -1.7570     2.1450 h1         1 JLY       0.029200
     26 H112        -0.4000    -0.4350     3.3290 h1         1 JLY       0.029200
     27 H122        -1.7100    -0.5290     1.1370 hc         1 JLY       0.034200
     28 H121        -0.9190     1.0530     1.5940 hc         1 JLY       0.034200
     29 H161         2.9890    -0.0020    -1.4600 ha         1 JLY       0.135000
     30 O02          7.5730     1.1930     1.5460 os         1 JLY      -0.306900
@<TRIPOS>BOND
     1     1     3 2   
     2     1    14 1   
     3     1    15 1   
     4     2    15 1   
     5     2    16 2   
     6     2    17 1   
     7     3    11 1   
     8     3    16 1   
     9     4    18 1   
    10     4    19 1   
    11     4    20 1   
    12     4    30 1   
    13     5     6 ar  
    14     5    10 ar  
    15     5    30 1   
    16     6     7 ar  
    17     6    21 1   
    18     7     8 ar  
    19     7    22 1   
    20     8     9 ar  
    21     8    11 1   
    22     9    10 ar  
    23     9    23 1   
    24    10    24 1   
    25    11    12 2   
    26    12    13 1   
    27    13    14 1   
    28    13    25 1   
    29    13    26 1   
    30    14    27 1   
    31    14    28 1   
    32    16    29 1   
@<TRIPOS>SUBSTRUCTURE
     1 JLY         1 TEMP              0 ****  ****    0 ROOT
