@<TRIPOS>MOLECULE
JLZ
   21    21     1     0     0
SMALL
bcc


@<TRIPOS>ATOM
      1 F1           0.0000     0.0000     0.0000 f          1 JLZ      -0.102900
      2 C2           1.3520     0.0000     0.0000 ca         1 JLZ       0.143900
      3 C3           2.0440     0.0000     1.2010 ca         1 JLZ      -0.050300
      4 C4           3.4270     0.0010     1.2060 ca         1 JLZ      -0.050000
      5 C6           4.1260     0.0010     0.0170 ca         1 JLZ      -0.058000
      6 C8           3.4360     0.0000    -1.1950 ca         1 JLZ      -0.217900
      7 C9           2.0420    -0.0060    -1.1980 ca         1 JLZ      -0.128000
      8 C11          4.1810     0.0010    -2.4750 ce         1 JLZ       0.212800
      9 N12          5.4830     0.0020    -2.4690 n2         1 JLZ      -0.485100
     10 N14          3.4970     0.0000    -3.6700 nz         1 JLZ       0.190400
     11 C17          1.2870    -0.0000     2.5030 c3         1 JLZ       0.053200
     12 H4           3.9630     0.0010     2.1480 ha         1 JLZ       0.136000
     13 H6           5.2090     0.0040     0.0240 ha         1 JLZ       0.114000
     14 H9           1.5010    -0.0070    -2.1360 ha         1 JLZ       0.100000
     15 HN12         5.9810     0.0020    -1.6010 hn         1 JLZ       0.381400
     16 HN14         4.1500     0.0030    -4.4280 hn         1 JLZ       0.222467
     17 HN1A         2.9200     0.8160    -3.7250 hn         1 JLZ       0.222467
     18 H17          0.6630    -0.8840     2.5590 hc         1 JLZ       0.031033
     19 H17A         1.9880    -0.0010     3.3290 hc         1 JLZ       0.031033
     20 H17B         0.6650     0.8850     2.5590 hc         1 JLZ       0.031033
     21 H143         2.9150    -0.8120    -3.7210 hn         1 JLZ       0.222467
@<TRIPOS>BOND
     1     1     2 1   
     2     2     3 ar  
     3     2     7 ar  
     4     3     4 ar  
     5     3    11 1   
     6     4     5 ar  
     7     4    12 1   
     8     5     6 ar  
     9     5    13 1   
    10     6     7 ar  
    11     6     8 1   
    12     7    14 1   
    13     8     9 2   
    14     8    10 1   
    15     9    15 1   
    16    10    16 1   
    17    10    17 1   
    18    10    21 1   
    19    11    18 1   
    20    11    19 1   
    21    11    20 1   
@<TRIPOS>SUBSTRUCTURE
     1 JLZ         1 TEMP              0 ****  ****    0 ROOT
