@<TRIPOS>MOLECULE
molecule
   21    21     1     0     0
SMALL
bcc


@<TRIPOS>ATOM
      1 F1           0.0000     0.0000     0.0000 f          1 JLZ      -0.110900
      2 C2           1.3520     0.0000     0.0000 ca         1 JLZ       0.154900
      3 C3           2.0440     0.0000     1.2010 ca         1 JLZ      -0.052300
      4 C4           3.4270     0.0010     1.2060 ca         1 JLZ      -0.099000
      5 C6           4.1260     0.0010     0.0170 ca         1 JLZ      -0.049000
      6 C8           3.4360     0.0000    -1.1950 ca         1 JLZ      -0.182900
      7 C9           2.0420    -0.0060    -1.1980 ca         1 JLZ      -0.172000
      8 C11          4.1810     0.0010    -2.4750 ce         1 JLZ       0.544800
      9 N12          5.4830     0.0020    -2.4690 n2         1 JLZ      -0.680100
     10 N14          3.4970     0.0000    -3.6700 nz         1 JLZ      -0.801600
     11 C17          1.2870    -0.0000     2.5030 c3         1 JLZ      -0.059800
     12 H4           3.9630     0.0010     2.1480 ha         1 JLZ       0.172000
     13 H6           5.2090     0.0040     0.0240 ha         1 JLZ       0.173000
     14 H9           1.5010    -0.0070    -2.1360 ha         1 JLZ       0.120000
     15 HN12         5.9890     0.0020    -3.3330 hn         1 JLZ       0.435400
     16 HN14         4.1500     0.0030    -4.4280 hn         1 JLZ       0.466133
     17 HN1A         2.9190     0.8150    -3.7240 hn         1 JLZ       0.466133
     18 H17          0.6620    -0.8840     2.5580 hc         1 JLZ       0.070033
     19 H17A         1.9880    -0.0020     3.3290 hc         1 JLZ       0.070033
     20 H17B         0.6650     0.8850     2.5600 hc         1 JLZ       0.070033
     21 H143         2.9150    -0.8130    -3.7210 hn         1 JLZ       0.466133
@<TRIPOS>BOND
     1     1     2 1
     2     2     3 ar
     3     2     7 ar
     4     3     4 ar
     5     3    11 1
     6     4     5 ar
     7     5     6 ar
     8     6     7 ar
     9     6     8 1
    10     8     9 2
    11     8    10 1
    12     4    12 1
    13     5    13 1
    14     7    14 1
    15     9    15 1
    16    10    16 1
    17    10    17 1
    18    11    18 1
    19    11    19 1
    20    11    20 1
    21    21    10 1
@<TRIPOS>SUBSTRUCTURE
     1 JLZ         1 TEMP              0 ****  ****    0 ROOT
