@<TRIPOS>MOLECULE
JM2
   31    30     1     0     0
SMALL
bcc


@<TRIPOS>ATOM
      1 C            0.0000     0.0000     0.0000 c          1 JM2       0.956600
      2 N            1.9970     1.2000    -0.6930 nz         1 JM2       0.080400
      3 C1           6.1960    -0.2680     4.0750 c2         1 JM2       0.462200
      4 C2           7.6980    -0.3930     4.0770 c3         1 JM2       0.002400
      5 S3           8.3020    -0.3920     5.7870 ss         1 JM2      -0.378200
      6 C4          10.0990    -0.5470     5.5850 c3         1 JM2       0.117000
      7 CA           1.5070     0.0000     0.0000 c3         1 JM2      -0.203500
      8 CB           2.0170     0.0000     1.4420 c3         1 JM2      -0.015400
      9 CD           4.0520    -0.1260     2.8870 c3         1 JM2       0.182800
     10 NE           5.5120    -0.2460     2.8880 nu         1 JM2      -0.487200
     11 CG           3.5410    -0.1250     1.4440 c3         1 JM2      -0.061400
     12 NH           5.5530    -0.1820     5.1940 n2         1 JM2      -0.761100
     13 OA1         -0.6710    -1.1440     0.2020 o          1 JM2      -0.816800
     14 OA2         -0.6040     1.0300    -0.1870 o          1 JM2      -0.816800
     15 HN           1.9850     1.9770    -0.0630 hn         1 JM2       0.211133
     16 HNA          1.4070     1.3970    -1.4770 hn         1 JM2       0.211133
     17 H2           8.1300     0.4440     3.5410 h1         1 JM2       0.042700
     18 H2A          7.9840    -1.3190     3.5930 h1         1 JM2       0.042700
     19 H4          10.4720     0.2930     5.0120 h1         1 JM2       0.033033
     20 H4A         10.3250    -1.4690     5.0630 h1         1 JM2       0.033033
     21 H4B         10.5720    -0.5580     6.5590 h1         1 JM2       0.033033
     22 HA           1.8680    -0.8850    -0.5110 hx         1 JM2       0.086700
     23 HB           1.5850    -0.8370     1.9780 hc         1 JM2       0.059200
     24 HBA          1.7300     0.9260     1.9270 hc         1 JM2       0.059200
     25 HD           3.6200    -0.9620     3.4230 h1         1 JM2       0.034200
     26 HG           3.9730     0.7110     0.9080 hc         1 JM2       0.003700
     27 HGA          3.8280    -1.0510     0.9590 hc         1 JM2       0.003700
     28 HNH          6.0520    -0.1980     6.0610 hn         1 JM2       0.361400
     29 H16          3.7660     0.8000     3.3710 h1         1 JM2       0.034200
     30 H17          6.0120    -0.2820     2.0220 hn         1 JM2       0.281800
     31 HN3          2.9250     1.0350    -1.0300 hn         1 JM2       0.211133
@<TRIPOS>BOND
     1     1     7 1   
     2     1    13 1   
     3     1    14 1   
     4     2     7 1   
     5     2    15 1   
     6     2    16 1   
     7     2    31 1   
     8     3     4 1   
     9     3    10 1   
    10     3    12 2   
    11     4     5 1   
    12     4    17 1   
    13     4    18 1   
    14     5     6 1   
    15     6    19 1   
    16     6    20 1   
    17     6    21 1   
    18     7     8 1   
    19     7    22 1   
    20     8    11 1   
    21     8    23 1   
    22     8    24 1   
    23     9    10 1   
    24     9    11 1   
    25     9    25 1   
    26     9    29 1   
    27    10    30 1   
    28    11    26 1   
    29    11    27 1   
    30    12    28 1   
@<TRIPOS>SUBSTRUCTURE
     1 JM2         1 TEMP              0 ****  ****    0 ROOT
