@<TRIPOS>MOLECULE
molecule
   31    30     1     0     0
SMALL
bcc


@<TRIPOS>ATOM
      1 C            0.0000     0.0000     0.0000 c          1 JM2       0.868600
      2 N            1.9970     1.2000    -0.6930 nz         1 JM2      -0.793600
      3 C1           6.1960    -0.2680     4.0750 c2         1 JM2       0.648200
      4 C2           7.6980    -0.3930     4.0770 c3         1 JM2      -0.031600
      5 S3           8.3020    -0.3920     5.7870 ss         1 JM2      -0.241200
      6 C4          10.0990    -0.5470     5.5850 c3         1 JM2      -0.034000
      7 CA           1.5070     0.0000     0.0000 c3         1 JM2      -0.017500
      8 CB           2.0170     0.0000     1.4420 c3         1 JM2      -0.088400
      9 CD           4.0520    -0.1260     2.8870 c3         1 JM2       0.235800
     10 NE           5.5120    -0.2460     2.8880 nu         1 JM2      -0.937200
     11 CG           3.5410    -0.1250     1.4440 c3         1 JM2      -0.115400
     12 NH           5.5530    -0.1820     5.1940 n2         1 JM2      -0.858100
     13 OA1         -0.6710    -1.1440     0.2020 o          1 JM2      -0.772300
     14 OA2         -0.6040     1.0300    -0.1870 o          1 JM2      -0.772300
     15 HN           1.9850     1.9770    -0.0620 hn         1 JM2       0.439800
     16 HNA          2.9330     1.0420    -1.0110 hn         1 JM2       0.439800
     17 H2           8.1300     0.4440     3.5410 h1         1 JM2       0.065700
     18 H2A          7.9840    -1.3190     3.5930 h1         1 JM2       0.065700
     19 H4          10.4710     0.2930     5.0110 h1         1 JM2       0.058367
     20 H4A         10.5720    -0.5580     6.5590 h1         1 JM2       0.058367
     21 H4B         10.3250    -1.4690     5.0630 h1         1 JM2       0.058367
     22 HA           1.8680    -0.8850    -0.5110 hx         1 JM2       0.104700
     23 HB           1.5850    -0.8370     1.9780 hc         1 JM2       0.089700
     24 HBA          1.7300     0.9260     1.9270 hc         1 JM2       0.089700
     25 HD           3.6200    -0.9620     3.4230 h1         1 JM2       0.051200
     26 HG           3.8280    -1.0510     0.9590 hc         1 JM2       0.035700
     27 HGA          3.9730     0.7110     0.9080 hc         1 JM2       0.035700
     28 HNH          4.5550    -0.1000     5.1920 hn         1 JM2       0.398400
     29 H16          3.7660     0.8000     3.3710 h1         1 JM2       0.051200
     30 H17          6.0120    -0.2830     2.0220 hn         1 JM2       0.423800
     31 HN3          1.3940     1.4090    -1.4640 hn         1 JM2       0.439800
@<TRIPOS>BOND
     1     1     7 1
     2     1    14 1
     3     2    15 1
     4     2    16 1
     5     3    12 2
     6     3    10 1
     7     4     3 1
     8     4    17 1
     9     4    18 1
    10     5     4 1
    11     6     5 1
    12     6    19 1
    13     6    20 1
    14     6    21 1
    15     7     2 1
    16     7    22 1
    17     8     7 1
    18     8    11 1
    19     8    23 1
    20     8    24 1
    21     9    10 1
    22     9    11 1
    23     9    25 1
    24    11    26 1
    25    11    27 1
    26    12    28 1
    27    13     1 1
    28     9    29 1
    29    10    30 1
    30    31     2 1
@<TRIPOS>SUBSTRUCTURE
     1 JM2         1 TEMP              0 ****  ****    0 ROOT
