@<TRIPOS>MOLECULE
JM4
   40    39     1     0     0
SMALL
bcc


@<TRIPOS>ATOM
      1 C            0.0000     0.0000     0.0000 c          1 JM4       0.956600
      2 N            1.9970     1.2000    -0.6920 nz         1 JM4       0.047400
      3 C1           6.1960    -0.2680     4.0760 c2         1 JM4       0.451200
      4 C2           7.6990    -0.3910     4.0780 c3         1 JM4      -0.072700
      5 C3           8.2080    -0.3910     5.5200 c3         1 JM4       0.070700
      6 S4          10.0160    -0.5400     5.5220 ss         1 JM4      -0.406200
      7 C5          10.4250    -0.5220     7.2900 c3         1 JM4       0.071400
      8 C6           9.8410    -1.7670     7.9600 c3         1 JM4       0.007900
      9 C7          11.9460    -0.5160     7.4610 c3         1 JM4       0.007900
     10 CA           1.5070     0.0000     0.0000 c3         1 JM4      -0.199500
     11 CB           2.0170     0.0000     1.4420 c3         1 JM4      -0.014400
     12 CD           4.0530    -0.1250     2.8870 c3         1 JM4       0.178800
     13 NE           5.5120    -0.2450     2.8890 nu         1 JM4      -0.479200
     14 CG           3.5430    -0.1250     1.4440 c3         1 JM4      -0.061400
     15 NH           5.5530    -0.1810     5.1940 n2         1 JM4      -0.792100
     16 OA1         -0.6700    -1.1450     0.2010 o          1 JM4      -0.810300
     17 OA2         -0.6030     1.0310    -0.1770 o          1 JM4      -0.810300
     18 HN           2.6440     0.9330    -1.4060 hn         1 JM4       0.216133
     19 HNA          1.2250     1.6850    -1.1050 hn         1 JM4       0.216133
     20 H2           8.1300     0.4460     3.5420 hc         1 JM4       0.039200
     21 H2A          7.9860    -1.3160     3.5930 hc         1 JM4       0.039200
     22 H3           7.7770    -1.2270     6.0560 h1         1 JM4       0.045700
     23 H3A          7.9220     0.5350     6.0040 h1         1 JM4       0.045700
     24 H5          10.0060     0.3660     7.7480 h1         1 JM4       0.043700
     25 H6          10.4200    -2.0060     8.8440 hc         1 JM4       0.015200
     26 H6A          8.8130    -1.5760     8.2430 hc         1 JM4       0.015200
     27 H6B          9.8760    -2.6000     7.2690 hc         1 JM4       0.015200
     28 H7          12.3590    -1.4310     7.0520 hc         1 JM4       0.015200
     29 H7A         12.3650     0.3350     6.9370 hc         1 JM4       0.015200
     30 H7B         12.1900    -0.4480     8.5140 hc         1 JM4       0.015200
     31 HA           1.8680    -0.8840    -0.5110 hx         1 JM4       0.086700
     32 HB           1.7300     0.9250     1.9270 hc         1 JM4       0.058200
     33 HBA          1.5850    -0.8370     1.9780 hc         1 JM4       0.058200
     34 HD           3.6210    -0.9620     3.4220 h1         1 JM4       0.033700
     35 HDA          3.7660     0.8000     3.3710 h1         1 JM4       0.033700
     36 HNE          6.0090    -0.3230     2.0230 hn         1 JM4       0.284800
     37 HG           3.8300    -1.0510     0.9600 hc         1 JM4       0.004700
     38 HGA          3.9740     0.7120     0.9090 hc         1 JM4       0.004700
     39 HNH          6.0520    -0.1970     6.0610 hn         1 JM4       0.338400
     40 HN3          2.4530     1.8010    -0.0340 hn         1 JM4       0.216133
@<TRIPOS>BOND
     1     1    10 1   
     2     1    16 1   
     3     1    17 1   
     4     2    10 1   
     5     2    18 1   
     6     2    19 1   
     7     2    40 1   
     8     3     4 1   
     9     3    13 1   
    10     3    15 2   
    11     4     5 1   
    12     4    20 1   
    13     4    21 1   
    14     5     6 1   
    15     5    22 1   
    16     5    23 1   
    17     6     7 1   
    18     7     8 1   
    19     7     9 1   
    20     7    24 1   
    21     8    25 1   
    22     8    26 1   
    23     8    27 1   
    24     9    28 1   
    25     9    29 1   
    26     9    30 1   
    27    10    11 1   
    28    10    31 1   
    29    11    14 1   
    30    11    32 1   
    31    11    33 1   
    32    12    13 1   
    33    12    14 1   
    34    12    34 1   
    35    12    35 1   
    36    13    36 1   
    37    14    37 1   
    38    14    38 1   
    39    15    39 1   
@<TRIPOS>SUBSTRUCTURE
     1 JM4         1 TEMP              0 ****  ****    0 ROOT
