@<TRIPOS>MOLECULE
molecule
   40    39     1     0     0
SMALL
bcc


@<TRIPOS>ATOM
      1 C            0.0000     0.0000     0.0000 c          1 JM4       0.868600
      2 N            1.9970     1.2000    -0.6920 nz         1 JM4      -0.792600
      3 C1           6.1960    -0.2680     4.0760 c2         1 JM4       0.641200
      4 C2           7.6990    -0.3910     4.0780 c3         1 JM4      -0.092700
      5 C3           8.2080    -0.3910     5.5200 c3         1 JM4       0.041700
      6 S4          10.0160    -0.5400     5.5220 ss         1 JM4      -0.390200
      7 C5          10.4250    -0.5220     7.2900 c3         1 JM4       0.037400
      8 C6           9.8410    -1.7670     7.9600 c3         1 JM4      -0.086100
      9 C7          11.9460    -0.5160     7.4610 c3         1 JM4      -0.086100
     10 CA           1.5070     0.0000     0.0000 c3         1 JM4      -0.018500
     11 CB           2.0170     0.0000     1.4420 c3         1 JM4      -0.088400
     12 CD           4.0530    -0.1250     2.8870 c3         1 JM4       0.233800
     13 NE           5.5120    -0.2450     2.8890 nu         1 JM4      -0.936200
     14 CG           3.5430    -0.1250     1.4440 c3         1 JM4      -0.115400
     15 NH           5.5530    -0.1810     5.1940 n2         1 JM4      -0.891100
     16 OA1         -0.6700    -1.1450     0.2010 o          1 JM4      -0.772300
     17 OA2         -0.6030     1.0310    -0.1770 o          1 JM4      -0.772300
     18 HN           1.9860     1.9770    -0.0600 hn         1 JM4       0.439467
     19 HNA          1.4060     1.3980    -1.4750 hn         1 JM4       0.439467
     20 H2           8.1300     0.4460     3.5420 hc         1 JM4       0.066200
     21 H2A          7.9860    -1.3160     3.5930 hc         1 JM4       0.066200
     22 H3           7.9220     0.5350     6.0040 h1         1 JM4       0.076700
     23 H3A          7.7770    -1.2270     6.0560 h1         1 JM4       0.076700
     24 H5          10.0060     0.3660     7.7480 h1         1 JM4       0.064700
     25 H6          10.4550    -2.0410     8.8100 hc         1 JM4       0.045033
     26 H6A          8.8330    -1.5570     8.2970 hc         1 JM4       0.045033
     27 H6B          9.8210    -2.5850     7.2500 hc         1 JM4       0.045033
     28 H7          12.3660     0.3260     6.9250 hc         1 JM4       0.045033
     29 H7A         12.1900    -0.4330     8.5130 hc         1 JM4       0.045033
     30 H7B         12.3570    -1.4370     7.0660 hc         1 JM4       0.045033
     31 HA           1.8680    -0.8840    -0.5110 hx         1 JM4       0.104700
     32 HB           1.5850    -0.8370     1.9780 hc         1 JM4       0.089700
     33 HBA          1.7300     0.9250     1.9270 hc         1 JM4       0.089700
     34 HD           3.6210    -0.9620     3.4220 h1         1 JM4       0.050200
     35 HDA          3.7660     0.8000     3.3710 h1         1 JM4       0.050200
     36 HNE          6.0100    -0.3120     2.0230 hn         1 JM4       0.426800
     37 HG           3.9750     0.7120     0.9090 hc         1 JM4       0.036700
     38 HGA          3.8300    -1.0510     0.9600 hc         1 JM4       0.036700
     39 HNH          4.5560    -0.0990     5.1920 hn         1 JM4       0.395400
     40 HN3          2.9370     1.0480    -0.9990 hn         1 JM4       0.439467
@<TRIPOS>BOND
     1    17     1 1
     2    10     1 1
     3     1    16 1
     4     2    10 1
     5     2    18 1
     6     2    19 1
     7    15     3 2
     8    13     3 1
     9     3     4 1
    10     4     5 1
    11     4    20 1
    12     4    21 1
    13     6     5 1
    14     5    22 1
    15     5    23 1
    16     6     7 1
    17     8     7 1
    18     7     9 1
    19     7    24 1
    20     8    25 1
    21     8    26 1
    22     8    27 1
    23     9    28 1
    24     9    29 1
    25     9    30 1
    26    10    11 1
    27    10    31 1
    28    14    11 1
    29    11    32 1
    30    11    33 1
    31    14    12 1
    32    13    12 1
    33    12    34 1
    34    12    35 1
    35    13    36 1
    36    14    37 1
    37    14    38 1
    38    15    39 1
    39    40     2 1
@<TRIPOS>SUBSTRUCTURE
     1 JM4         1 TEMP              0 ****  ****    0 ROOT
