@<TRIPOS>MOLECULE
molecule
   37    36     1     0     0
SMALL
bcc


@<TRIPOS>ATOM
      1 C            0.0000     0.0000     0.0000 c          1 JM5       0.868600
      2 N            1.9970     0.0000     1.3860 nz         1 JM5      -0.791600
      3 C1           6.1970    -3.3930    -2.2690 c2         1 JM5       0.648200
      4 C2           7.7000    -3.3320    -2.3770 c3         1 JM5      -0.030600
      5 S3           8.3050    -4.8130    -3.2320 ss         1 JM5      -0.246200
      6 C4          10.1010    -4.5600    -3.2630 c3         1 JM5      -0.017300
      7 C5          10.7700    -5.7440    -3.9650 c3         1 JM5      -0.065400
      8 C6          12.2850    -5.5320    -3.9920 c3         1 JM5      -0.090100
      9 CA           1.5070     0.0000     0.0000 c3         1 JM5      -0.017500
     10 CB           2.0180    -1.2480    -0.7210 c3         1 JM5      -0.088400
     11 CD           4.0530    -2.4360    -1.5520 c3         1 JM5       0.234800
     12 NE           5.5140    -2.3760    -1.6560 nu         1 JM5      -0.937200
     13 CG           3.5420    -1.1870    -0.8300 c3         1 JM5      -0.115400
     14 NH           5.5560    -4.4050    -2.7550 n2         1 JM5      -0.857100
     15 OA1         -0.6700     0.3980    -1.0920 o          1 JM5      -0.772300
     16 OA2         -0.6040    -0.3540     0.9850 o          1 JM5      -0.772300
     17 HN           1.4070     0.5810     1.9480 hn         1 JM5       0.438800
     18 HNA          2.9330     0.3540     1.4090 hn         1 JM5       0.438800
     19 H2           7.9860    -2.4500    -2.9360 h1         1 JM5       0.065700
     20 H2A          8.1310    -3.2870    -1.3840 h1         1 JM5       0.065700
     21 H4          10.3280    -3.6470    -3.8000 h1         1 JM5       0.051700
     22 H4A         10.4730    -4.4840    -2.2490 h1         1 JM5       0.051700
     23 H5          10.5430    -6.6570    -3.4280 hc         1 JM5       0.055200
     24 H5A         10.3980    -5.8200    -4.9790 hc         1 JM5       0.055200
     25 H6          12.5120    -4.6190    -4.5290 hc         1 JM5       0.035367
     26 H6A         12.6570    -5.4560    -2.9770 hc         1 JM5       0.035367
     27 H6B         12.7590    -6.3700    -4.4880 hc         1 JM5       0.035367
     28 HA           1.8680     0.8850    -0.5100 hx         1 JM5       0.104700
     29 HB           1.5870    -1.2940    -1.7140 hc         1 JM5       0.089700
     30 HBA          1.7300    -2.1310    -0.1620 hc         1 JM5       0.089700
     31 HD           3.6220    -2.4800    -2.5450 h1         1 JM5       0.051700
     32 HG           3.8290    -0.3040    -1.3880 hc         1 JM5       0.036200
     33 HGA          3.9730    -1.1430     0.1630 hc         1 JM5       0.036200
     34 HNH          4.5580    -4.4460    -2.6840 hn         1 JM5       0.397400
     35 H20          3.7670    -3.3190    -0.9940 h1         1 JM5       0.051700
     36 H21          6.0070    -1.5740    -1.3180 hn         1 JM5       0.423800
     37 HN3          2.0060    -0.9370     1.7370 hn         1 JM5       0.438800
@<TRIPOS>BOND
     1     1    16 1
     2     2     9 1
     3     2    17 1
     4     2    18 1
     5     3     4 1
     6     4    19 1
     7     4    20 1
     8     5     4 1
     9     5     6 1
    10     6     7 1
    11     6    21 1
    12     6    22 1
    13     7     8 1
    14     7    23 1
    15     7    24 1
    16     8    25 1
    17     8    26 1
    18     8    27 1
    19     9     1 1
    20     9    10 1
    21     9    28 1
    22    10    29 1
    23    10    30 1
    24    11    31 1
    25    12     3 1
    26    12    11 1
    27    13    10 1
    28    13    11 1
    29    13    32 1
    30    13    33 1
    31    14     3 2
    32    14    34 1
    33    15     1 1
    34    11    35 1
    35    12    36 1
    36    37     2 1
@<TRIPOS>SUBSTRUCTURE
     1 JM5         1 TEMP              0 ****  ****    0 ROOT
