@<TRIPOS>MOLECULE
JM6
   37    36     1     0     0
SMALL
bcc


@<TRIPOS>ATOM
      1 C            0.0000     0.0000     0.0000 c          1 JM6       0.956600
      2 N            1.9960     1.1990    -0.6930 nz         1 JM6       0.080400
      3 C1           6.1950    -0.2670     4.0760 c2         1 JM6       0.449200
      4 C2           7.6980    -0.3900     4.0780 c3         1 JM6      -0.093700
      5 C3           8.2070    -0.3900     5.5200 c3         1 JM6      -0.015400
      6 C4           9.7320    -0.5150     5.5220 c3         1 JM6       0.080700
      7 S5          10.3370    -0.5150     7.2320 ss         1 JM6      -0.401200
      8 C6          12.1330    -0.6690     7.0300 c3         1 JM6       0.119000
      9 CA           1.5070     0.0000     0.0000 c3         1 JM6      -0.204500
     10 CB           2.0170     0.0000     1.4430 c3         1 JM6      -0.014400
     11 CD           4.0510    -0.1250     2.8870 c3         1 JM6       0.180800
     12 NE           5.5120    -0.2450     2.8880 nu         1 JM6      -0.485200
     13 CG           3.5420    -0.1250     1.4440 c3         1 JM6      -0.061400
     14 OA1         -0.6710    -1.1450     0.2020 o          1 JM6      -0.816300
     15 OA2         -0.6050     1.0310    -0.1770 o          1 JM6      -0.816300
     16 NH1          5.5520    -0.1810     5.1950 n2         1 JM6      -0.785100
     17 HN           2.9320     1.0420    -1.0120 hn         1 JM6       0.211133
     18 HNA          1.4050     1.3970    -1.4760 hn         1 JM6       0.211133
     19 H2           7.9850    -1.3160     3.5930 hc         1 JM6       0.025700
     20 H2A          8.1300     0.4460     3.5420 hc         1 JM6       0.025700
     21 H3           7.9200     0.5350     6.0050 hc         1 JM6       0.039700
     22 H3A          7.7760    -1.2280     6.0550 hc         1 JM6       0.039700
     23 H4          10.1640     0.3220     4.9870 h1         1 JM6       0.032700
     24 H4A         10.0200    -1.4400     5.0370 h1         1 JM6       0.032700
     25 H6          12.3600    -1.5910     6.5080 h1         1 JM6       0.031367
     26 H6A         12.6060    -0.6800     8.0050 h1         1 JM6       0.031367
     27 H6B         12.5050     0.1710     6.4570 h1         1 JM6       0.031367
     28 HA           1.8680    -0.8850    -0.5110 hx         1 JM6       0.086700
     29 HB           1.7300     0.9260     1.9270 hc         1 JM6       0.058700
     30 HBA          1.5850    -0.8370     1.9780 hc         1 JM6       0.058700
     31 HD           3.7640     0.8000     3.3710 h1         1 JM6       0.033700
     32 HDA          3.6190    -0.9620     3.4220 h1         1 JM6       0.033700
     33 HNE          6.0120    -0.2820     2.0220 hn         1 JM6       0.282800
     34 HG           3.8290    -1.0510     0.9600 hc         1 JM6       0.003700
     35 HGA          3.9740     0.7110     0.9090 hc         1 JM6       0.003700
     36 HNH1         6.0510    -0.1970     6.0620 hn         1 JM6       0.344400
     37 HN3          1.9840     1.9770    -0.0630 hn         1 JM6       0.211133
@<TRIPOS>BOND
     1     1     9 1   
     2     1    14 1   
     3     1    15 1   
     4     2     9 1   
     5     2    17 1   
     6     2    18 1   
     7     2    37 1   
     8     3     4 1   
     9     3    12 1   
    10     3    16 2   
    11     4     5 1   
    12     4    19 1   
    13     4    20 1   
    14     5     6 1   
    15     5    21 1   
    16     5    22 1   
    17     6     7 1   
    18     6    23 1   
    19     6    24 1   
    20     7     8 1   
    21     8    25 1   
    22     8    26 1   
    23     8    27 1   
    24     9    10 1   
    25     9    28 1   
    26    10    13 1   
    27    10    29 1   
    28    10    30 1   
    29    11    12 1   
    30    11    13 1   
    31    11    31 1   
    32    11    32 1   
    33    12    33 1   
    34    13    34 1   
    35    13    35 1   
    36    16    36 1   
@<TRIPOS>SUBSTRUCTURE
     1 JM6         1 TEMP              0 ****  ****    0 ROOT
