@<TRIPOS>MOLECULE
molecule
   34    33     1     0     0
SMALL
bcc


@<TRIPOS>ATOM
      1 C            0.0000     0.0000     0.0000 c          1 JM7       0.868600
      2 N            1.9970     1.1990    -0.6930 nz         1 JM7      -0.790600
      3 C1           6.1960    -0.2670     4.0750 c2         1 JM7       0.648200
      4 C2           7.6980    -0.3900     4.0770 c3         1 JM7      -0.030600
      5 S3           8.3020    -0.3910     5.7880 ss         1 JM7      -0.245200
      6 C4          10.0980    -0.5450     5.5860 c3         1 JM7      -0.019300
      7 C5          10.7670    -0.5590     6.9620 c3         1 JM7      -0.074100
      8 CA           1.5070     0.0000     0.0000 c3         1 JM7      -0.018500
      9 CB           2.0170     0.0000     1.4420 c3         1 JM7      -0.088400
     10 CD           4.0520    -0.1250     2.8870 c3         1 JM7       0.235800
     11 NE           5.5120    -0.2460     2.8880 nu         1 JM7      -0.937200
     12 CG           3.5410    -0.1260     1.4440 c3         1 JM7      -0.115400
     13 NH           5.5530    -0.1810     5.1940 n2         1 JM7      -0.858100
     14 OA1         -0.6710    -1.1450     0.2020 o          1 JM7      -0.772300
     15 OA2         -0.6040     1.0300    -0.1870 o          1 JM7      -0.772300
     16 HN           1.9860     1.9770    -0.0630 hn         1 JM7       0.439133
     17 HNA          2.9330     1.0410    -1.0110 hn         1 JM7       0.439133
     18 H2           8.1300     0.4460     3.5420 h1         1 JM7       0.065700
     19 H2A          7.9850    -1.3160     3.5930 h1         1 JM7       0.065700
     20 H4          10.3250    -1.4670     5.0650 h1         1 JM7       0.050700
     21 H4A         10.4710     0.2950     5.0120 h1         1 JM7       0.050700
     22 H5          11.8400    -0.6520     6.8410 hc         1 JM7       0.045700
     23 H5A         10.3950    -1.4000     7.5360 hc         1 JM7       0.045700
     24 H5B         10.5400     0.3630     7.4830 hc         1 JM7       0.045700
     25 HA           1.8680    -0.8850    -0.5100 hx         1 JM7       0.104700
     26 HB           1.7300     0.9260     1.9270 hc         1 JM7       0.089700
     27 HBA          1.5850    -0.8370     1.9780 hc         1 JM7       0.089700
     28 HD           3.6200    -0.9610     3.4240 h1         1 JM7       0.051200
     29 HDA          3.7660     0.8010     3.3710 h1         1 JM7       0.051200
     30 HNE          6.0120    -0.2810     2.0220 hn         1 JM7       0.423800
     31 HG           3.9730     0.7100     0.9080 hc         1 JM7       0.036200
     32 HGA          3.8280    -1.0520     0.9600 hc         1 JM7       0.036200
     33 HNH          4.5550    -0.0990     5.1930 hn         1 JM7       0.397400
     34 HN3          1.4150     1.3890    -1.4840 hn         1 JM7       0.439133
@<TRIPOS>BOND
     1    14     1 1
     2     1     8 1
     3     1    15 1
     4     8     2 1
     5     2    16 1
     6     2    17 1
     7     4     3 1
     8     3    13 2
     9     3    11 1
    10     4     5 1
    11     4    18 1
    12     4    19 1
    13     6     5 1
    14     7     6 1
    15     6    20 1
    16     6    21 1
    17     7    22 1
    18     7    23 1
    19     7    24 1
    20     9     8 1
    21     8    25 1
    22     9    12 1
    23     9    26 1
    24     9    27 1
    25    10    11 1
    26    10    12 1
    27    10    28 1
    28    10    29 1
    29    11    30 1
    30    12    31 1
    31    12    32 1
    32    13    33 1
    33    34     2 1
@<TRIPOS>SUBSTRUCTURE
     1 JM7         1 TEMP              0 ****  ****    0 ROOT
