@<TRIPOS>MOLECULE
JM7
   34    33     1     0     0
SMALL
bcc


@<TRIPOS>ATOM
      1 C            0.0000     0.0000     0.0000 c          1 JM7       0.956600
      2 N            1.9970     1.1990    -0.6930 nz         1 JM7       0.080400
      3 C1           6.1960    -0.2670     4.0750 c2         1 JM7       0.462200
      4 C2           7.6980    -0.3900     4.0770 c3         1 JM7       0.005400
      5 S3           8.3020    -0.3910     5.7880 ss         1 JM7      -0.384200
      6 C4          10.0980    -0.5450     5.5860 c3         1 JM7       0.087700
      7 C5          10.7670    -0.5590     6.9620 c3         1 JM7       0.026900
      8 CA           1.5070     0.0000     0.0000 c3         1 JM7      -0.204500
      9 CB           2.0170     0.0000     1.4420 c3         1 JM7      -0.015400
     10 CD           4.0520    -0.1250     2.8870 c3         1 JM7       0.181800
     11 NE           5.5120    -0.2460     2.8880 nu         1 JM7      -0.487200
     12 CG           3.5410    -0.1260     1.4440 c3         1 JM7      -0.061400
     13 NH           5.5530    -0.1810     5.1940 n2         1 JM7      -0.762100
     14 OA1         -0.6710    -1.1450     0.2020 o          1 JM7      -0.816300
     15 OA2         -0.6040     1.0300    -0.1870 o          1 JM7      -0.816300
     16 HN           1.4070     1.3960    -1.4770 hn         1 JM7       0.211133
     17 HNA          1.9860     1.9770    -0.0630 hn         1 JM7       0.211133
     18 H2           7.9850    -1.3160     3.5930 h1         1 JM7       0.042200
     19 H2A          8.1300     0.4460     3.5420 h1         1 JM7       0.042200
     20 H4          10.3250    -1.4670     5.0650 h1         1 JM7       0.031200
     21 H4A         10.4710     0.2950     5.0120 h1         1 JM7       0.031200
     22 H5          10.5400     0.3630     7.4840 hc         1 JM7       0.014367
     23 H5A         10.3950    -1.4000     7.5360 hc         1 JM7       0.014367
     24 H5B         11.8400    -0.6510     6.8410 hc         1 JM7       0.014367
     25 HA           1.8680    -0.8850    -0.5100 hx         1 JM7       0.086700
     26 HB           1.5850    -0.8370     1.9780 hc         1 JM7       0.059200
     27 HBA          1.7300     0.9260     1.9270 hc         1 JM7       0.059200
     28 HD           3.6200    -0.9610     3.4240 h1         1 JM7       0.034200
     29 HDA          3.7660     0.8010     3.3710 h1         1 JM7       0.034200
     30 HNE          6.0120    -0.2810     2.0220 hn         1 JM7       0.281800
     31 HG           3.9730     0.7100     0.9080 hc         1 JM7       0.003700
     32 HGA          3.8280    -1.0520     0.9600 hc         1 JM7       0.003700
     33 HNH          6.0530    -0.1970     6.0610 hn         1 JM7       0.361400
     34 HN3          2.9330     1.0420    -1.0100 hn         1 JM7       0.211133
@<TRIPOS>BOND
     1     1     8 1   
     2     1    14 1   
     3     1    15 1   
     4     2     8 1   
     5     2    16 1   
     6     2    17 1   
     7     2    34 1   
     8     3     4 1   
     9     3    11 1   
    10     3    13 2   
    11     4     5 1   
    12     4    18 1   
    13     4    19 1   
    14     5     6 1   
    15     6     7 1   
    16     6    20 1   
    17     6    21 1   
    18     7    22 1   
    19     7    23 1   
    20     7    24 1   
    21     8     9 1   
    22     8    25 1   
    23     9    12 1   
    24     9    26 1   
    25     9    27 1   
    26    10    11 1   
    27    10    12 1   
    28    10    28 1   
    29    10    29 1   
    30    11    30 1   
    31    12    31 1   
    32    12    32 1   
    33    13    33 1   
@<TRIPOS>SUBSTRUCTURE
     1 JM7         1 TEMP              0 ****  ****    0 ROOT
