@<TRIPOS>MOLECULE
molecule
   37    36     1     0     0
SMALL
bcc


@<TRIPOS>ATOM
      1 C            0.0000     0.0000     0.0000 c          1 JM8       0.868600
      2 N            1.9970     1.2000    -0.6920 nz         1 JM8      -0.792600
      3 C1           6.1960    -0.2670     4.0760 c2         1 JM8       0.641200
      4 C2           7.6980    -0.3900     4.0780 c3         1 JM8      -0.092700
      5 C3           8.2070    -0.3900     5.5210 c3         1 JM8       0.041700
      6 S4          10.0160    -0.5380     5.5230 ss         1 JM8      -0.392200
      7 C5          10.4240    -0.5210     7.2910 c3         1 JM8       0.027700
      8 C6          11.9400    -0.6400     7.4640 c3         1 JM8      -0.079100
      9 CA           1.5070     0.0000     0.0000 c3         1 JM8      -0.018500
     10 CB           2.0170     0.0000     1.4430 c3         1 JM8      -0.087400
     11 CD           4.0520    -0.1250     2.8880 c3         1 JM8       0.233800
     12 NE           5.5120    -0.2450     2.8890 nu         1 JM8      -0.936200
     13 CG           3.5430    -0.1250     1.4450 c3         1 JM8      -0.115400
     14 NH           5.5530    -0.1810     5.1950 n2         1 JM8      -0.891100
     15 OA1         -0.6700    -1.1450     0.2020 o          1 JM8      -0.772300
     16 OA2         -0.6040     1.0290    -0.1870 o          1 JM8      -0.772300
     17 HN           2.9330     1.0430    -1.0100 hn         1 JM8       0.439800
     18 HNA          1.9850     1.9770    -0.0620 hn         1 JM8       0.439800
     19 H2           7.9850    -1.3160     3.5940 hc         1 JM8       0.066200
     20 H2A          8.1300     0.4470     3.5430 hc         1 JM8       0.066200
     21 H3           7.7760    -1.2270     6.0570 h1         1 JM8       0.076700
     22 H3A          7.9200     0.5350     6.0050 h1         1 JM8       0.076700
     23 H5          10.0820     0.4070     7.7310 h1         1 JM8       0.058200
     24 H5A          9.9380    -1.3560     7.7820 h1         1 JM8       0.058200
     25 H6          12.1840    -0.6310     8.5200 hc         1 JM8       0.045700
     26 H6A         12.4260     0.1940     6.9740 hc         1 JM8       0.045700
     27 H6B         12.2820    -1.5690     7.0230 hc         1 JM8       0.045700
     28 HA           1.8680    -0.8850    -0.5110 hx         1 JM8       0.105700
     29 HB           1.7300     0.9250     1.9270 hc         1 JM8       0.089200
     30 HBA          1.5860    -0.8370     1.9780 hc         1 JM8       0.089200
     31 HD           3.7660     0.8010     3.3720 h1         1 JM8       0.050700
     32 HG           3.9740     0.7120     0.9100 hc         1 JM8       0.036700
     33 HGA          3.8300    -1.0500     0.9610 hc         1 JM8       0.036700
     34 HNH          4.5550    -0.0990     5.1950 hn         1 JM8       0.395400
     35 H20          3.6200    -0.9610     3.4240 h1         1 JM8       0.050700
     36 H21          6.0080    -0.3290     2.0240 hn         1 JM8       0.426800
     37 HN3          1.3950     1.4090    -1.4640 hn         1 JM8       0.439800
@<TRIPOS>BOND
     1     1     9 1
     2     1    16 1
     3     2    17 1
     4     2    18 1
     5     3    12 1
     6     3    14 2
     7     4     3 1
     8     4     5 1
     9     4    19 1
    10     4    20 1
    11     5     6 1
    12     5    21 1
    13     5    22 1
    14     7     6 1
    15     7    23 1
    16     7    24 1
    17     8     7 1
    18     8    25 1
    19     8    26 1
    20     8    27 1
    21     9     2 1
    22     9    28 1
    23    10     9 1
    24    10    13 1
    25    10    29 1
    26    10    30 1
    27    11    12 1
    28    11    13 1
    29    11    31 1
    30    13    32 1
    31    13    33 1
    32    14    34 1
    33    15     1 1
    34    11    35 1
    35    12    36 1
    36    37     2 1
@<TRIPOS>SUBSTRUCTURE
     1 JM8         1 TEMP              0 ****  ****    0 ROOT
