@<TRIPOS>MOLECULE
JM8
   37    36     1     0     0
SMALL
bcc


@<TRIPOS>ATOM
      1 C            0.0000     0.0000     0.0000 c          1 JM8       0.957600
      2 N            1.9970     1.2000    -0.6920 nz         1 JM8       0.082400
      3 C1           6.1960    -0.2670     4.0760 c2         1 JM8       0.451200
      4 C2           7.6980    -0.3900     4.0780 c3         1 JM8      -0.072700
      5 C3           8.2070    -0.3900     5.5210 c3         1 JM8       0.072700
      6 S4          10.0160    -0.5380     5.5230 ss         1 JM8      -0.409200
      7 C5          10.4240    -0.5210     7.2910 c3         1 JM8       0.093700
      8 C6          11.9400    -0.6400     7.4640 c3         1 JM8       0.025900
      9 CA           1.5070     0.0000     0.0000 c3         1 JM8      -0.204500
     10 CB           2.0170     0.0000     1.4430 c3         1 JM8      -0.015400
     11 CD           4.0520    -0.1250     2.8880 c3         1 JM8       0.179800
     12 NE           5.5120    -0.2450     2.8890 nu         1 JM8      -0.479200
     13 CG           3.5430    -0.1250     1.4450 c3         1 JM8      -0.061400
     14 NH           5.5530    -0.1810     5.1950 n2         1 JM8      -0.792100
     15 OA1         -0.6700    -1.1450     0.2020 o          1 JM8      -0.816800
     16 OA2         -0.6040     1.0290    -0.1870 o          1 JM8      -0.816800
     17 HN           1.4080     1.3970    -1.4770 hn         1 JM8       0.210133
     18 HNA          2.9330     1.0430    -1.0100 hn         1 JM8       0.210133
     19 H2           7.9850    -1.3160     3.5940 hc         1 JM8       0.039200
     20 H2A          8.1300     0.4470     3.5430 hc         1 JM8       0.039200
     21 H3           7.7760    -1.2270     6.0570 h1         1 JM8       0.043700
     22 H3A          7.9200     0.5350     6.0050 h1         1 JM8       0.043700
     23 H5           9.9380    -1.3560     7.7820 h1         1 JM8       0.032200
     24 H5A         10.0820     0.4070     7.7310 h1         1 JM8       0.032200
     25 H6          12.2820    -1.5690     7.0230 hc         1 JM8       0.013367
     26 H6A         12.4260     0.1940     6.9730 hc         1 JM8       0.013367
     27 H6B         12.1840    -0.6300     8.5200 hc         1 JM8       0.013367
     28 HA           1.8680    -0.8850    -0.5110 hx         1 JM8       0.087700
     29 HB           1.7300     0.9250     1.9270 hc         1 JM8       0.058200
     30 HBA          1.5860    -0.8370     1.9780 hc         1 JM8       0.058200
     31 HD           3.6200    -0.9610     3.4240 h1         1 JM8       0.033700
     32 HG           3.9740     0.7120     0.9100 hc         1 JM8       0.004200
     33 HGA          3.8300    -1.0500     0.9610 hc         1 JM8       0.004200
     34 HNH          6.0530    -0.1970     6.0620 hn         1 JM8       0.338400
     35 H20          3.7660     0.8010     3.3720 h1         1 JM8       0.033700
     36 H21          6.0080    -0.3290     2.0240 hn         1 JM8       0.284800
     37 HN3          2.0060     1.9720    -0.0560 hn         1 JM8       0.210133
@<TRIPOS>BOND
     1     1     9 1   
     2     1    15 1   
     3     1    16 1   
     4     2     9 1   
     5     2    17 1   
     6     2    18 1   
     7     2    37 1   
     8     3     4 1   
     9     3    12 1   
    10     3    14 2   
    11     4     5 1   
    12     4    19 1   
    13     4    20 1   
    14     5     6 1   
    15     5    21 1   
    16     5    22 1   
    17     6     7 1   
    18     7     8 1   
    19     7    23 1   
    20     7    24 1   
    21     8    25 1   
    22     8    26 1   
    23     8    27 1   
    24     9    10 1   
    25     9    28 1   
    26    10    13 1   
    27    10    29 1   
    28    10    30 1   
    29    11    12 1   
    30    11    13 1   
    31    11    31 1   
    32    11    35 1   
    33    12    36 1   
    34    13    32 1   
    35    13    33 1   
    36    14    34 1   
@<TRIPOS>SUBSTRUCTURE
     1 JM8         1 TEMP              0 ****  ****    0 ROOT
