@<TRIPOS>MOLECULE
molecule
   28    29     1     0     0
SMALL
bcc


@<TRIPOS>ATOM
      1 C10          0.0000     0.0000     0.0000 ca         1 JMA      -0.054000
      2 C13          0.0060    -0.0060     2.4020 ca         1 JMA       0.042400
      3 C15          1.3850    -0.0000     2.4190 ca         1 JMA      -0.114000
      4 O01          7.4330    -2.8740     4.6000 oh         1 JMA      -0.610800
      5 C02          6.3410    -2.8730     3.6780 c3         1 JMA       0.143400
      6 C03          6.0320    -1.4370     3.2550 c3         1 JMA      -0.081400
      7 C04          4.8620    -1.4360     2.2680 c3         1 JMA      -0.107400
      8 N06          3.4330     0.0010     0.8990 na         1 JMA      -0.155300
      9 C07          3.5220     0.0010    -0.4580 cc         1 JMA       0.439700
     10 N08          2.3330     0.0020    -0.9850 nd         1 JMA      -0.598100
     11 C09          1.3970     0.0000     0.0000 ca         1 JMA       0.097400
     12 C11         -0.6840    -0.0000     1.1950 ca         1 JMA       0.011400
     13 Cl12        -2.4200     0.0070     1.1940 cl         1 JMA      -0.085400
     14 Cl14        -0.8750    -0.0060     3.8980 cl         1 JMA      -0.085400
     15 C16          2.0900     0.0000     1.2220 ca         1 JMA      -0.088200
     16 H101        -0.5430     0.0050    -0.9370 ha         1 JMA       0.163000
     17 H151         1.9170    -0.0050     3.3620 ha         1 JMA       0.146000
     18 H011         7.6240    -3.7600     4.8610 ho         1 JMA       0.406000
     19 H021         5.4680    -3.3060     4.1520 h1         1 JMA       0.022700
     20 H022         6.6050    -3.4580     2.8060 h1         1 JMA       0.022700
     21 H031         6.9040    -1.0040     2.7800 hc         1 JMA       0.056200
     22 H032         5.7680    -0.8520     4.1270 hc         1 JMA       0.056200
     23 H041         5.1260    -2.0210     1.3950 hc         1 JMA       0.056700
     24 H042         3.9890    -1.8690     2.7430 hc         1 JMA       0.056700
     25 H051         4.2890     0.5860     2.7170 h1         1 JMA       0.066200
     26 H052         5.4250     0.4330     1.3700 h1         1 JMA       0.066200
     27 H071         4.4490     0.0020    -1.0190 h5         1 JMA       0.077800
     28 C05          4.5530     0.0010     1.8440 c3         1 JMA       0.049300
@<TRIPOS>BOND
     1     4     5 1
     2     6     5 1
     3     6     7 1
     4     7    28 1
     5    28     8 1
     6     9     8 1
     7     9    10 2
     8     8    15 1
     9    10    11 1
    10    15    11 ar
    11    15     3 ar
    12    11     1 ar
    13     3     2 ar
    14     1    12 ar
    15     2    12 ar
    16     2    14 1
    17    12    13 1
    18     1    16 1
    19     3    17 1
    20     4    18 1
    21     5    19 1
    22     5    20 1
    23     6    21 1
    24     6    22 1
    25     7    23 1
    26     7    24 1
    27    28    25 1
    28    28    26 1
    29     9    27 1
@<TRIPOS>SUBSTRUCTURE
     1 JMA         1 TEMP              0 ****  ****    0 ROOT
