@<TRIPOS>MOLECULE
molecule
   37    38     1     0     0
SMALL
bcc


@<TRIPOS>ATOM
      1 C            0.0000     0.0000     0.0000 c3         1 JMB      -0.087100
      2 N            3.5090     0.0010     1.4410 ny         1 JMB      -0.735000
      3 C8           7.5760     1.2060     2.8250 ca         1 JMB       0.031400
      4 C7           8.2750     0.0010     2.8340 cp         1 JMB       0.040000
      5 C10          9.7590    -0.0000     2.8390 cp         1 JMB      -0.091000
      6 C15         10.4620     0.7730     1.9170 ca         1 JMB      -0.097500
      7 C14         11.8430     0.7700     1.9270 ca         1 JMB      -0.124000
      8 C13         12.5290    -0.0000     2.8490 ca         1 JMB      -0.097000
      9 C12         11.8360    -0.7700     3.7660 ca         1 JMB      -0.124000
     10 C11         10.4560    -0.7700     3.7690 ca         1 JMB      -0.097500
     11 C6           7.5760    -1.2050     2.8400 ca         1 JMB      -0.103000
     12 C5           6.1960    -1.1980     2.8350 ca         1 JMB      -0.101000
     13 C9           6.1950     1.2010     2.8250 ca         1 JMB      -0.097000
     14 C4           5.5070     0.0010     2.8250 ca         1 JMB      -0.196300
     15 C3           3.9990     0.0010     2.8260 c3         1 JMB       0.163100
     16 C2           2.0400     0.0000     1.4420 c3         1 JMB       0.090800
     17 C1           1.5300     0.0000     0.0000 c3         1 JMB      -0.112400
     18 H1          -0.3610    -0.0000    -1.0210 hc         1 JMB       0.059700
     19 H2          -0.3610     0.8850     0.5100 hc         1 JMB       0.059700
     20 H3          -0.3610    -0.8840     0.5110 hc         1 JMB       0.059700
     21 H4           3.8430    -0.8160     0.9690 hn         1 JMB       0.450300
     22 H5           3.8420     0.8190     0.9690 hn         1 JMB       0.450300
     23 H6           9.9260     1.3770     1.1950 ha         1 JMB       0.135000
     24 H7          12.3900     1.3710     1.2110 ha         1 JMB       0.144500
     25 H8          13.6120    -0.0010     2.8520 ha         1 JMB       0.145000
     26 H9          12.3780    -1.3700     4.4880 ha         1 JMB       0.144500
     27 H10          9.9140    -1.3730     4.4880 ha         1 JMB       0.135000
     28 H11          8.1150    -2.1450     2.8470 ha         1 JMB       0.167000
     29 H12          5.6520    -2.1340     2.8380 ha         1 JMB       0.137000
     30 H13          5.6500     2.1370     2.8170 ha         1 JMB       0.146000
     31 H14          3.6380    -0.8830     3.3370 hx         1 JMB       0.107700
     32 H15          3.6380     0.8860     3.3370 hx         1 JMB       0.107700
     33 H16          1.6790     0.8840     1.9530 hx         1 JMB       0.105700
     34 H17          1.6800    -0.8850     1.9530 hx         1 JMB       0.105700
     35 H18          1.8910     0.8840    -0.5110 hc         1 JMB       0.063700
     36 H19          1.8910    -0.8840    -0.5110 hc         1 JMB       0.063700
     37 Cl           8.4400     2.7120     2.8180 cl         1 JMB      -0.050400
@<TRIPOS>BOND
     1     7     6 ar
     2     7     8 ar
     3     6     5 ar
     4    37     3 1
     5     8     9 ar
     6     5     4 1
     7     5    10 ar
     8     9    10 ar
     9     3     4 ar
    10     3    13 ar
    11     4    11 ar
    12    13    14 ar
    13    11    12 ar
    14    14    12 ar
    15    14    15 1
    16     2    15 1
    17     2    16 1
    18    17    16 1
    19    17     1 1
    20     1    18 1
    21     1    19 1
    22     1    20 1
    23     2    21 1
    24     2    22 1
    25     6    23 1
    26     7    24 1
    27     8    25 1
    28     9    26 1
    29    10    27 1
    30    11    28 1
    31    12    29 1
    32    13    30 1
    33    15    31 1
    34    15    32 1
    35    16    33 1
    36    16    34 1
    37    17    35 1
    38    17    36 1
@<TRIPOS>SUBSTRUCTURE
     1 JMB         1 TEMP              0 ****  ****    0 ROOT
