@<TRIPOS>MOLECULE
JMD
   20    20     1     0     0
SMALL
bcc


@<TRIPOS>ATOM
      1 C10          7.6480     0.0010     1.4270 cg         1 JMD       0.223800
      2 O01          0.0000     0.0000     0.0000 oh         1 JMD      -0.571800
      3 C02          1.4290     0.0000     0.0000 c3         1 JMD       0.235400
      4 C03          1.9380     0.0000     1.4430 c3         1 JMD      -0.214100
      5 C04          3.4460     0.0010     1.4440 ca         1 JMD       0.190700
      6 C05          4.1350    -1.1990     1.4380 ca         1 JMD      -0.140500
      7 C06          5.5140    -1.2060     1.4320 ca         1 JMD      -0.057000
      8 C07          6.2150     0.0010     1.4320 ca         1 JMD       0.033000
      9 C08          5.5130     1.2090     1.4380 ca         1 JMD      -0.057000
     10 C09          4.1340     1.2010     1.4430 ca         1 JMD      -0.140500
     11 N11          8.7830    -0.0190     1.4220 n1         1 JMD      -0.367800
     12 H011        -0.3140    -0.2040    -0.8650 ho         1 JMD       0.387000
     13 H021         1.7900     0.8840    -0.5110 h1         1 JMD      -0.022800
     14 H022         1.7900    -0.8850    -0.5110 h1         1 JMD      -0.022800
     15 H032         3.0020    -0.2070     1.4500 hc         1 JMD       0.018700
     16 H031         1.4180    -0.7630     2.0100 hc         1 JMD       0.018700
     17 H051         3.5910    -2.1360     1.4060 ha         1 JMD       0.126500
     18 H061         6.0510    -2.1470     1.4280 ha         1 JMD       0.116500
     19 H081         6.0530     2.1480     1.4450 ha         1 JMD       0.116500
     20 H091         3.5900     2.1370     1.4160 ha         1 JMD       0.126500
@<TRIPOS>BOND
     1     1     8 1   
     2     1    11 3   
     3     2     3 1   
     4     2    12 1   
     5     3     4 1   
     6     3    13 1   
     7     3    14 1   
     8     4     5 1   
     9     4    15 1   
    10     4    16 1   
    11     5     6 ar  
    12     5    10 ar  
    13     6     7 ar  
    14     6    17 1   
    15     7     8 ar  
    16     7    18 1   
    17     8     9 ar  
    18     9    10 ar  
    19     9    19 1   
    20    10    20 1   
@<TRIPOS>SUBSTRUCTURE
     1 JMD         1 TEMP              0 ****  ****    0 ROOT
