@<TRIPOS>MOLECULE
molecule
   20    20     1     0     0
SMALL
bcc


@<TRIPOS>ATOM
      1 C10          7.6480     0.0010     1.4270 cg         1 JMD       0.229800
      2 O01          0.0000     0.0000     0.0000 oh         1 JMD      -0.587800
      3 C02          1.4290     0.0000     0.0000 c3         1 JMD       0.172400
      4 C03          1.9380     0.0000     1.4430 c3         1 JMD      -0.362100
      5 C04          3.4460     0.0010     1.4440 ca         1 JMD       0.011700
      6 C05          4.1350    -1.1990     1.4380 ca         1 JMD      -0.145500
      7 C06          5.5140    -1.2060     1.4320 ca         1 JMD      -0.090000
      8 C07          6.2150     0.0010     1.4320 ca         1 JMD       0.005000
      9 C08          5.5130     1.2090     1.4380 ca         1 JMD      -0.090000
     10 C09          4.1340     1.2010     1.4430 ca         1 JMD      -0.145500
     11 N11          8.7830    -0.0190     1.4220 n1         1 JMD      -0.341800
     12 H011        -0.3140    -0.2040    -0.8650 ho         1 JMD       0.400000
     13 H021         1.7900     0.8840    -0.5110 h1         1 JMD       0.002700
     14 H022         1.7900    -0.8850    -0.5110 h1         1 JMD       0.002700
     15 H032         3.0020    -0.2070     1.4500 hc         1 JMD       0.153200
     16 H031         1.4180    -0.7630     2.0100 hc         1 JMD       0.153200
     17 H051         3.5910    -2.1360     1.4060 ha         1 JMD       0.164000
     18 H061         6.0510    -2.1470     1.4280 ha         1 JMD       0.151500
     19 H081         6.0530     2.1480     1.4450 ha         1 JMD       0.151500
     20 H091         3.5900     2.1370     1.4160 ha         1 JMD       0.164000
@<TRIPOS>BOND
     1    11     1 3
     2     7     6 ar
     3     7     8 ar
     4     1     8 1
     5     6     5 ar
     6     8     9 ar
     7     5    10 ar
     8     5     4 1
     9     9    10 ar
    10     3     2 1
    11     3     4 1
    12     2    12 1
    13     3    13 1
    14     3    14 1
    15     4    15 1
    16     4    16 1
    17     6    17 1
    18     7    18 1
    19     9    19 1
    20    10    20 1
@<TRIPOS>SUBSTRUCTURE
     1 JMD         1 TEMP              0 ****  ****    0 ROOT
