@<TRIPOS>MOLECULE
molecule
   21    22     1     0     0
SMALL
bcc


@<TRIPOS>ATOM
      1 C10          0.0000     0.0000     0.0000 ca         1 JMG      -0.135500
      2 C13          1.3880     0.0010     2.4020 ca         1 JMG      -0.127500
      3 O01          2.1800     0.0110    -5.9410 o          1 JMG      -0.822800
      4 O03          4.3610     0.0050    -5.5150 o          1 JMG      -0.822800
      5 C04          2.9860    -0.0000    -3.6420 cc         1 JMG       0.014300
      6 C05          3.9620    -0.0000    -2.6830 cc         1 JMG      -0.191000
      7 C06          3.4980    -0.0010    -1.3960 cc         1 JMG      -0.131000
      8 C07          2.1380     0.0000    -1.2780 cd         1 JMG      -0.086100
      9 S08          1.4030     0.0000    -2.8760 ss         1 JMG      -0.107800
     10 C09          1.3960     0.0000     0.0000 ca         1 JMG       0.044000
     11 C11         -0.6870     0.0070     1.1960 ca         1 JMG      -0.127500
     12 C12          0.0050     0.0080     2.3950 ca         1 JMG      -0.162000
     13 C14          2.0870     0.0000     1.2120 ca         1 JMG      -0.135500
     14 H101        -0.5420    -0.0710    -0.9350 ha         1 JMG       0.135000
     15 H131         1.8960     0.0060     3.3580 ha         1 JMG       0.116500
     16 H051         5.0180    -0.0010    -2.9240 ha         1 JMG       0.157000
     17 H061         4.1590    -0.0010    -0.5380 ha         1 JMG       0.121000
     18 H111        -1.7700     0.0120     1.1960 ha         1 JMG       0.116500
     19 H121        -0.5400     0.0140     3.3310 ha         1 JMG       0.113000
     20 H141         3.1680    -0.0750     1.2190 ha         1 JMG       0.135000
     21 C02          3.2240     0.0060    -5.0860 c          1 JMG       0.898200
@<TRIPOS>BOND
     1     2    13 ar
     2     2    12 ar
     3    13    10 ar
     4    12    11 ar
     5     7     8 2
     6     7     6 1
     7    10     8 1
     8    10     1 ar
     9     8     9 1
    10     6     5 2
    11    11     1 ar
    12     5     9 1
    13     5    21 1
    14     4    21 1
    15    21     3 1
    16     1    14 1
    17     2    15 1
    18     6    16 1
    19     7    17 1
    20    11    18 1
    21    12    19 1
    22    13    20 1
@<TRIPOS>SUBSTRUCTURE
     1 JMG         1 TEMP              0 ****  ****    0 ROOT
