@<TRIPOS>MOLECULE
molecule
   38    39     1     0     0
SMALL
bcc


@<TRIPOS>ATOM
      1 N            0.0000     0.0000     0.0000 ns         1 JMP      -0.488100
      2 O1           1.9560    -0.0980     1.0470 o          1 JMP      -0.525100
      3 C2           3.0540    -0.8430    -1.6270 ca         1 JMP      -0.054600
      4 O2          -3.7690    -1.3490     2.6320 os         1 JMP      -0.335900
      5 C3           2.0870     0.1180    -1.2770 ca         1 JMP      -0.129600
      6 O3           4.3520    -2.8190    -0.9960 o          1 JMP      -0.817800
      7 C4           1.8300     1.1820    -2.1370 ca         1 JMP      -0.137000
      8 O4           2.6540    -2.1500     0.2670 o          1 JMP      -0.817800
      9 C5           2.5230     1.2880    -3.3290 ca         1 JMP      -0.163000
     10 C6           3.4730     0.3440    -3.6740 ca         1 JMP      -0.145000
     11 C7           3.7460    -0.7160    -2.8280 ca         1 JMP      -0.100000
     12 C8           1.3480     0.0000     0.0000 c          1 JMP       0.688700
     13 C9          -0.6980     0.0000     1.2120 ca         1 JMP       0.133600
     14 C10         -1.9010    -0.6830     1.3200 ca         1 JMP      -0.271000
     15 C11         -2.5910    -0.6810     2.5230 ca         1 JMP       0.152100
     16 C12         -2.0770     0.0030     3.6140 ca         1 JMP      -0.199000
     17 C13         -0.8780     0.6830     3.5050 ca         1 JMP      -0.082000
     18 C14         -0.1860     0.6790     2.3100 ca         1 JMP      -0.166000
     19 C15         -4.2610    -1.9940     1.4550 c3         1 JMP       0.138100
     20 C16         -5.2050    -3.1300     1.8540 c3         1 JMP      -0.103600
     21 C17         -5.0180    -0.9800     0.5950 c3         1 JMP      -0.103600
     22 HN          -0.5010    -0.0350    -0.8660 hn         1 JMP       0.315500
     23 H4           1.0880     1.9250    -1.8740 ha         1 JMP       0.110000
     24 H5           2.3190     2.1160    -3.9980 ha         1 JMP       0.105000
     25 H6           4.0110     0.4380    -4.6090 ha         1 JMP       0.108000
     26 H7           4.4910    -1.4520    -3.1050 ha         1 JMP       0.160000
     27 H10         -2.2620    -1.2780     0.4900 ha         1 JMP       0.135000
     28 H12         -2.6180     0.0080     4.5530 ha         1 JMP       0.127000
     29 H13         -0.4780     1.2150     4.3600 ha         1 JMP       0.126000
     30 H14          0.7540     1.2120     2.2270 ha         1 JMP       0.161000
     31 H15         -3.4290    -2.3980     0.8910 h1         1 JMP       0.058700
     32 H16         -6.0250    -2.7300     2.4380 hc         1 JMP       0.041533
     33 H16A        -5.5960    -3.6050     0.9620 hc         1 JMP       0.041533
     34 H16B        -4.6640    -3.8600     2.4440 hc         1 JMP       0.041533
     35 H17         -6.0750    -1.0270     0.8270 hc         1 JMP       0.041533
     36 H17A        -4.8670    -1.2110    -0.4520 hc         1 JMP       0.041533
     37 H17B        -4.6470     0.0170     0.8020 hc         1 JMP       0.041533
     38 C1           3.3360    -1.9770    -0.7220 c          1 JMP       0.872200
@<TRIPOS>BOND
     1    12     1 1
     2     1    13 1
     3     1    22 1
     4     8    38 1
     5    38     6 1
     6    38     3 1
     7     2    12 2
     8     3    11 ar
     9     3     5 ar
    10    19     4 1
    11     4    15 1
    12    12     5 1
    13     5     7 ar
    14     7     9 ar
    15     7    23 1
    16    10     9 ar
    17     9    24 1
    18    11    10 ar
    19    10    25 1
    20    11    26 1
    21    14    13 ar
    22    13    18 ar
    23    14    15 ar
    24    14    27 1
    25    15    16 ar
    26    16    17 ar
    27    16    28 1
    28    18    17 ar
    29    17    29 1
    30    18    30 1
    31    20    19 1
    32    19    21 1
    33    19    31 1
    34    20    32 1
    35    20    33 1
    36    20    34 1
    37    21    35 1
    38    21    36 1
    39    21    37 1
@<TRIPOS>SUBSTRUCTURE
     1 JMP         1 TEMP              0 ****  ****    0 ROOT
