@<TRIPOS>MOLECULE
JMQ
   36    38     1     0     0
SMALL
bcc


@<TRIPOS>ATOM
      1 C1           0.0000     0.0000     0.0000 c3         1 JMQ       0.210100
      2 C2           4.4150     0.0000     1.0520 cc         1 JMQ       0.276800
      3 C8           1.3080    -0.0000    -2.1850 cc         1 JMQ      -0.308300
      4 C9           1.2530     0.0000    -0.8370 cd         1 JMQ      -0.131300
      5 O6           5.5780     0.0010    -2.2160 o          1 JMQ      -0.713500
      6 C6           4.8100     0.0000    -1.2690 c          1 JMQ       0.647100
      7 N1           5.2760     0.0000     0.0000 ns         1 JMQ       0.003600
      8 N3           3.1240     0.0000     0.8880 nd         1 JMQ      -0.468100
      9 C4           2.5770     0.0000    -0.3510 cd         1 JMQ       0.109400
     10 C5           3.4150     0.0010    -1.4710 cc         1 JMQ      -0.446900
     11 N7           2.6080     0.0000    -2.5860 na         1 JMQ       0.478900
     12 N4'         -0.2750     1.3640     0.4710 n3         1 JMQ      -0.509600
     13 C1'         -0.6370     2.2510    -0.6550 c3         1 JMQ       0.125800
     14 C2'         -1.6650     3.2450    -0.0600 c3         1 JMQ       0.164100
     15 O2'         -1.0090     4.2970     0.6500 oh         1 JMQ      -0.545800
     16 C3'         -2.4600     2.3320     0.9100 c3         1 JMQ       0.155100
     17 O3'         -3.0310     3.0980     1.9720 oh         1 JMQ      -0.558800
     18 C4'         -1.3770     1.3740     1.4500 c3         1 JMQ       0.114500
     19 C5'         -1.9550    -0.0360     1.5970 c3         1 JMQ       0.182400
     20 O5'         -2.5720    -0.4270     0.3690 oh         1 JMQ      -0.602800
     21 H11          6.2630    -0.0000     0.1660 hn         1 JMQ       0.179500
     22 H1          -0.8330    -0.3510    -0.5970 h1         1 JMQ       0.035700
     23 H1A          0.1350    -0.6560     0.8520 h1         1 JMQ       0.035700
     24 H2           4.8170    -0.0000     2.0580 h5         1 JMQ       0.005800
     25 H8           0.4490    -0.0010    -2.8460 h4         1 JMQ       0.148000
     26 HN7          2.9260    -0.0000    -3.5350 hn         1 JMQ       0.117700
     27 H1'          0.2370     2.7830    -1.0110 h1         1 JMQ       0.021200
     28 H1'A        -1.0890     1.6770    -1.4540 h1         1 JMQ       0.021200
     29 H2'         -2.3130     3.6370    -0.8350 h1         1 JMQ      -0.001300
     30 HO2'        -1.0810     5.1000     0.1600 ho         1 JMQ       0.379000
     31 H3'         -3.2230     1.7800     0.3740 h1         1 JMQ       0.025700
     32 HO3'        -3.9700     3.1010     1.8880 ho         1 JMQ       0.379000
     33 H4'         -1.0150     1.7310     2.4070 h1         1 JMQ       0.068700
     34 H5'         -2.6930    -0.0430     2.3900 h1         1 JMQ       0.005700
     35 H5'A        -1.1590    -0.7300     1.8380 h1         1 JMQ       0.005700
     36 HO5'        -3.1560    -1.1510     0.5270 ho         1 JMQ       0.391000
@<TRIPOS>BOND
     1     1     4 1   
     2     1    12 1   
     3     1    22 1   
     4     1    23 1   
     5     2     7 1   
     6     2     8 2   
     7     2    24 1   
     8     3     4 2   
     9     3    11 1   
    10     3    25 1   
    11     4     9 1   
    12     5     6 2   
    13     6     7 1   
    14     6    10 1   
    15     7    21 1   
    16     8     9 1   
    17     9    10 2   
    18    10    11 1   
    19    11    26 1   
    20    12    13 1   
    21    12    18 1   
    22    13    14 1   
    23    13    27 1   
    24    13    28 1   
    25    14    15 1   
    26    14    16 1   
    27    14    29 1   
    28    15    30 1   
    29    16    17 1   
    30    16    18 1   
    31    16    31 1   
    32    17    32 1   
    33    18    19 1   
    34    18    33 1   
    35    19    20 1   
    36    19    34 1   
    37    19    35 1   
    38    20    36 1   
@<TRIPOS>SUBSTRUCTURE
     1 JMQ         1 TEMP              0 ****  ****    0 ROOT
