@<TRIPOS>MOLECULE
JMS
   29    30     1     0     0
SMALL
bcc


@<TRIPOS>ATOM
      1 OXT          0.0000     0.0000     0.0000 o          1 JMS      -0.880800
      2 C7           1.3480     0.0000     0.0000 c          1 JMS       0.970200
      3 OH           1.9550     0.0000     1.0540 o          1 JMS      -0.880800
      4 C1           2.0840    -0.0010    -1.2750 ca         1 JMS      -0.097600
      5 C6           1.3950    -0.1230    -2.4840 ca         1 JMS      -0.055000
      6 C5           2.0910    -0.1240    -3.6740 ca         1 JMS      -0.141000
      7 C4           3.4720    -0.0060    -3.6790 ca         1 JMS      -0.128000
      8 C3           4.1670     0.1160    -2.4930 ca         1 JMS      -0.142000
      9 C2           3.4840     0.1250    -1.2840 ca         1 JMS       0.001600
     10 N            4.1800     0.2470    -0.0890 nu         1 JMS      -0.203000
     11 C1B          4.1090     1.4360     0.6450 ca         1 JMS       0.128600
     12 C2B          4.3680     1.4280     2.0110 ca         1 JMS      -0.059600
     13 Cl1          4.7800    -0.0580     2.8090 cl         1 JMS      -0.041400
     14 C3B          4.2950     2.6040     2.7320 ca         1 JMS      -0.050300
     15 C7B          4.5750     2.5970     4.2130 c3         1 JMS       0.059200
     16 C4B          3.9680     3.7880     2.0970 ca         1 JMS      -0.169000
     17 C5B          3.7100     3.8000     0.7390 ca         1 JMS      -0.058000
     18 C6B          3.7850     2.6280     0.0100 ca         1 JMS      -0.103600
     19 Cl2          3.4620     2.6430    -1.6960 cl         1 JMS      -0.024400
     20 H2           0.3160    -0.2170    -2.4870 ha         1 JMS       0.130000
     21 H3           1.5560    -0.2190    -4.6110 ha         1 JMS       0.084000
     22 H4           4.0090    -0.0100    -4.6190 ha         1 JMS       0.082000
     23 H5           5.2460     0.2100    -2.5050 ha         1 JMS       0.093000
     24 H6           4.7500    -0.5080     0.2370 hn         1 JMS       0.280800
     25 H7           3.8280     1.9970     4.7190 hc         1 JMS       0.004033
     26 H8           4.5400     3.6120     4.5920 hc         1 JMS       0.004033
     27 H9           5.5570     2.1780     4.3930 hc         1 JMS       0.004033
     28 H10          3.9100     4.7080     2.6660 ha         1 JMS       0.097000
     29 H11          3.4560     4.7300     0.2440 ha         1 JMS       0.096000
@<TRIPOS>BOND
     1     1     2 1   
     2     2     3 1   
     3     2     4 1   
     4     4     5 ar  
     5     4     9 ar  
     6     5     6 ar  
     7     5    20 1   
     8     6     7 ar  
     9     6    21 1   
    10     7     8 ar  
    11     7    22 1   
    12     8     9 ar  
    13     8    23 1   
    14     9    10 1   
    15    10    11 1   
    16    10    24 1   
    17    11    12 ar  
    18    11    18 ar  
    19    12    13 1   
    20    12    14 ar  
    21    14    15 1   
    22    14    16 ar  
    23    15    25 1   
    24    15    26 1   
    25    15    27 1   
    26    16    17 ar  
    27    16    28 1   
    28    17    18 ar  
    29    17    29 1   
    30    18    19 1   
@<TRIPOS>SUBSTRUCTURE
     1 JMS         1 TEMP              0 ****  ****    0 ROOT
