@<TRIPOS>MOLECULE
molecule
   18    18     1     0     0
SMALL
bcc


@<TRIPOS>ATOM
      1 C10          0.0000     0.0000     0.0000 ca         1 JMV       0.068400
      2 O01         -4.0070     0.0010     5.0740 o          1 JMV      -0.825300
      3 C02         -2.6760     0.0010     4.8960 c          1 JMV       0.895600
      4 O03         -1.9390     0.0010     5.8530 o          1 JMV      -0.825300
      5 C04         -2.1020     0.0010     3.5030 c3         1 JMV       0.015400
      6 O05         -0.6760     0.0010     3.5750 os         1 JMV      -0.281900
      7 C06          0.0030     0.0010     2.3970 ca         1 JMV       0.176100
      8 C07          1.3900     0.0000     2.3940 ca         1 JMV      -0.175000
      9 C08          2.0780     0.0000     1.1960 ca         1 JMV      -0.095000
     10 C09          1.3850     0.0000     0.0000 ca         1 JMV      -0.194000
     11 Cl11        -0.8670    -0.0080    -1.5040 cl         1 JMV      -0.142400
     12 C12         -0.6920     0.0000     1.1970 ca         1 JMV      -0.227000
     13 H042        -2.4370    -0.8840     2.9750 h1         1 JMV       0.028700
     14 H041        -2.4370     0.8850     2.9740 h1         1 JMV       0.028700
     15 H071         1.9330     0.0000     3.3310 ha         1 JMV       0.145000
     16 H081         3.1610    -0.0000     1.1940 ha         1 JMV       0.122000
     17 H091         1.9260    -0.0000    -0.9390 ha         1 JMV       0.125000
     18 H121        -1.7750     0.0000     1.1970 ha         1 JMV       0.159000
@<TRIPOS>BOND
     1    11     1 1
     2     1    12 ar
     3     1    10 ar
     4    12     7 ar
     5    10     9 ar
     6     7     6 1
     7     7     8 ar
     8     9     8 ar
     9     6     5 1
    10     5     3 1
    11     4     3 1
    12     3     2 1
    13     5    13 1
    14     5    14 1
    15     8    15 1
    16     9    16 1
    17    10    17 1
    18    12    18 1
@<TRIPOS>SUBSTRUCTURE
     1 JMV         1 TEMP              0 ****  ****    0 ROOT
