@<TRIPOS>MOLECULE
molecule
   32    34     1     0     0
SMALL
bcc


@<TRIPOS>ATOM
      1 C15          0.0000     0.0000     0.0000 ca         1 JMY      -0.140000
      2 C17          0.0040     0.0040     2.3930 ca         1 JMY      -0.163300
      3 C01         -2.1700     3.4180     4.3680 c3         1 JMY      -0.166100
      4 C02         -1.9170     2.0250     3.8540 c          1 JMY       0.682100
      5 O03         -2.6990     1.5130     3.0810 o          1 JMY      -0.612100
      6 N04         -0.8230     1.3470     4.2540 n          1 JMY      -0.491800
      7 C05          0.2020     1.8500     5.1860 c3         1 JMY       0.100000
      8 C06          0.8350     0.5770     5.8020 c3         1 JMY      -0.087700
      9 C07         -0.0350     0.0260     6.9340 c3         1 JMY       0.147400
     10 O08         -0.0450     0.9530     8.0210 oh         1 JMY      -0.609800
     11 C09          0.8470    -0.3900     4.5910 c3         1 JMY       0.129100
     12 O10          1.8740     0.0280     3.6800 os         1 JMY      -0.297900
     13 C11          1.3930     0.0110     2.4070 ca         1 JMY       0.087100
     14 C12          2.0780     0.0000     1.1930 ca         1 JMY       0.111900
     15 F13          3.4300    -0.0000     1.1830 f          1 JMY      -0.136900
     16 C14          1.3820     0.0000     0.0000 ca         1 JMY      -0.132000
     17 C16         -0.6870     0.0020     1.2000 ca         1 JMY      -0.068000
     18 C18         -0.4590    -0.0100     3.8350 c3         1 JMY       0.139000
     19 H151        -0.5430     0.0000    -0.9370 ha         1 JMY       0.142000
     20 H012        -3.0260     3.8420     3.8570 hc         1 JMY       0.063033
     21 H013        -2.3680     3.3800     5.4330 hc         1 JMY       0.063033
     22 H011        -1.2990     4.0350     4.1850 hc         1 JMY       0.063033
     23 H052         0.9520     2.4190     4.6500 h1         1 JMY       0.064700
     24 H051        -0.2570     2.4530     5.9600 h1         1 JMY       0.064700
     25 H061         1.8430     0.7770     6.1430 hc         1 JMY       0.093700
     26 H072        -1.0470    -0.1180     6.5740 h1         1 JMY       0.030700
     27 H071         0.3670    -0.9210     7.2710 h1         1 JMY       0.030700
     28 H081        -0.2980     0.5070     8.8120 ho         1 JMY       0.409000
     29 H091         0.9010    -1.4370     4.8640 h1         1 JMY       0.086700
     30 H141         1.9210    -0.0020    -0.9400 ha         1 JMY       0.150000
     31 H161        -1.7700     0.0020     1.2030 ha         1 JMY       0.159000
     32 H181        -1.2550    -0.7250     4.0050 h1         1 JMY       0.085700
@<TRIPOS>BOND
     1     5     4 2
     2    10     9 1
     3     4     6 1
     4     4     3 1
     5     7     6 1
     6     7     8 1
     7     9     8 1
     8     6    18 1
     9     8    11 1
    10    18    11 1
    11    18     2 1
    12    11    12 1
    13    17     2 ar
    14    17     1 ar
    15     2    13 ar
    16     1    16 ar
    17    13    12 1
    18    13    14 ar
    19    16    14 ar
    20    14    15 1
    21     1    19 1
    22     3    20 1
    23     3    21 1
    24     3    22 1
    25     7    23 1
    26     7    24 1
    27     8    25 1
    28     9    26 1
    29     9    27 1
    30    10    28 1
    31    11    29 1
    32    16    30 1
    33    17    31 1
    34    18    32 1
@<TRIPOS>SUBSTRUCTURE
     1 JMY         1 TEMP              0 ****  ****    0 ROOT
