@<TRIPOS>MOLECULE
JMY
   32    34     1     0     0
SMALL
bcc


@<TRIPOS>ATOM
      1 C15          0.0000     0.0000     0.0000 ca         1 JMY      -0.115000
      2 C17          0.0040     0.0040     2.3930 ca         1 JMY      -0.185300
      3 C01         -2.1700     3.4180     4.3680 c3         1 JMY      -0.069100
      4 C02         -1.9170     2.0250     3.8540 c          1 JMY       0.609100
      5 O03         -2.6990     1.5130     3.0810 o          1 JMY      -0.652100
      6 N04         -0.8230     1.3470     4.2540 n          1 JMY      -0.159800
      7 C05          0.2020     1.8500     5.1860 c3         1 JMY       0.048000
      8 C06          0.8350     0.5770     5.8020 c3         1 JMY      -0.079700
      9 C07         -0.0350     0.0260     6.9340 c3         1 JMY       0.232400
     10 O08         -0.0450     0.9530     8.0210 oh         1 JMY      -0.591800
     11 C09          0.8470    -0.3900     4.5910 c3         1 JMY       0.171100
     12 O10          1.8740     0.0280     3.6800 os         1 JMY      -0.277900
     13 C11          1.3930     0.0110     2.4070 ca         1 JMY       0.107100
     14 C12          2.0780     0.0000     1.1930 ca         1 JMY       0.080900
     15 F13          3.4300    -0.0000     1.1830 f          1 JMY      -0.125900
     16 C14          1.3820     0.0000     0.0000 ca         1 JMY      -0.097000
     17 C16         -0.6870     0.0020     1.2000 ca         1 JMY      -0.030000
     18 C18         -0.4590    -0.0100     3.8350 c3         1 JMY       0.077000
     19 H151        -0.5430     0.0000    -0.9370 ha         1 JMY       0.113000
     20 H012        -3.0260     3.8420     3.8570 hc         1 JMY       0.025367
     21 H013        -2.3680     3.3800     5.4330 hc         1 JMY       0.025367
     22 H011        -1.2990     4.0350     4.1850 hc         1 JMY       0.025367
     23 H052         0.9520     2.4190     4.6500 h1         1 JMY       0.035200
     24 H051        -0.2570     2.4530     5.9600 h1         1 JMY       0.035200
     25 H061         1.8430     0.7770     6.1430 hc         1 JMY       0.062700
     26 H072        -1.0470    -0.1180     6.5740 h1         1 JMY      -0.006800
     27 H071         0.3670    -0.9210     7.2710 h1         1 JMY      -0.006800
     28 H081        -0.2980     0.5070     8.8120 ho         1 JMY       0.396000
     29 H091         0.9010    -1.4370     4.8640 h1         1 JMY       0.048700
     30 H141         1.9210    -0.0020    -0.9400 ha         1 JMY       0.120000
     31 H161        -1.7700     0.0020     1.2030 ha         1 JMY       0.130000
     32 H181        -1.2550    -0.7250     4.0050 h1         1 JMY       0.054700
@<TRIPOS>BOND
     1     1    16 ar  
     2     1    17 ar  
     3     1    19 1   
     4     2    13 ar  
     5     2    17 ar  
     6     2    18 1   
     7     3     4 1   
     8     3    20 1   
     9     3    21 1   
    10     3    22 1   
    11     4     5 2   
    12     4     6 1   
    13     6     7 1   
    14     6    18 1   
    15     7     8 1   
    16     7    23 1   
    17     7    24 1   
    18     8     9 1   
    19     8    11 1   
    20     8    25 1   
    21     9    10 1   
    22     9    26 1   
    23     9    27 1   
    24    10    28 1   
    25    11    12 1   
    26    11    18 1   
    27    11    29 1   
    28    12    13 1   
    29    13    14 ar  
    30    14    15 1   
    31    14    16 ar  
    32    16    30 1   
    33    17    31 1   
    34    18    32 1   
@<TRIPOS>SUBSTRUCTURE
     1 JMY         1 TEMP              0 ****  ****    0 ROOT
