@<TRIPOS>MOLECULE
JMZ
   27    29     1     0     0
SMALL
bcc


@<TRIPOS>ATOM
      1 C4           0.0000     0.0000     0.0000 ca         1 JMZ       0.496200
      2 C5           4.1770    -0.0000     2.5100 ca         1 JMZ      -0.076000
      3 C6           3.5310    -0.0000     1.2820 cp         1 JMZ      -0.125500
      4 C7           6.3020    -0.0000     1.3530 ca         1 JMZ      -0.256900
      5 C8           2.0500     0.0000     1.2290 cp         1 JMZ       0.527800
      6 C10          7.7140    -0.0000     1.7360 cc         1 JMZ       0.483800
      7 N12          8.8050    -0.0000     0.8630 nv         1 JMZ      -0.573800
      8 C1           4.2700    -0.0000     0.0920 ca         1 JMZ      -0.136000
      9 C2           5.6320    -0.0000     0.1250 ca         1 JMZ      -0.018000
     10 C3           1.3830     0.0000     0.0000 ca         1 JMZ      -0.420600
     11 C9           5.5670    -0.0000     2.5560 ca         1 JMZ      -0.193200
     12 C11          0.0100     0.0000     2.3050 ca         1 JMZ       0.713900
     13 N13         -0.7060    -0.0000     3.4900 nv         1 JMZ      -0.501500
     14 N14          6.4800     0.0000     3.5790 na         1 JMZ       0.421900
     15 N15         -0.6470    -0.0010     1.1550 nb         1 JMZ      -0.705000
     16 N16          1.3320     0.0000     2.3500 nb         1 JMZ      -0.697000
     17 N17          7.7710    -0.0010     3.0420 nd         1 JMZ      -0.644100
     18 H4          -0.5480    -0.0000    -0.9350 h4         1 JMZ      -0.020900
     19 HN12         9.2060     0.8670     0.5650 hn         1 JMZ       0.272800
     20 HN1A         9.2060    -0.8670     0.5650 hn         1 JMZ       0.272800
     21 H1           3.7550    -0.0000    -0.8610 ha         1 JMZ       0.114000
     22 H2           6.1960    -0.0000    -0.8000 ha         1 JMZ       0.103000
     23 H3           1.9380     0.0010    -0.9310 ha         1 JMZ       0.133000
     24 HN13        -0.2230    -0.0000     4.3660 hn         1 JMZ       0.274300
     25 HN1B        -1.7070    -0.0000     3.4700 hn         1 JMZ       0.274300
     26 HN14         6.2570    -0.0000     4.5550 hn         1 JMZ       0.152700
     27 H5           3.6050     0.1060     3.4230 ha         1 JMZ       0.125000
@<TRIPOS>BOND
     1     1    10 ar  
     2     1    15 ar  
     3     1    18 1   
     4     2     3 ar  
     5     2    11 ar  
     6     2    27 1   
     7     3     5 1   
     8     3     8 ar  
     9     4     6 1   
    10     4     9 ar  
    11     4    11 ar  
    12     5    10 ar  
    13     5    16 ar  
    14     6     7 1   
    15     6    17 2   
    16     7    19 1   
    17     7    20 1   
    18     8     9 ar  
    19     8    21 1   
    20     9    22 1   
    21    10    23 1   
    22    11    14 1   
    23    12    13 1   
    24    12    15 ar  
    25    12    16 ar  
    26    13    24 1   
    27    13    25 1   
    28    14    17 1   
    29    14    26 1   
@<TRIPOS>SUBSTRUCTURE
     1 JMZ         1 TEMP              0 ****  ****    0 ROOT
