@<TRIPOS>MOLECULE
molecule
   27    29     1     0     0
SMALL
bcc


@<TRIPOS>ATOM
      1 C4           0.0000     0.0000     0.0000 ca         1 JMZ       0.502200
      2 C5           4.1770    -0.0000     2.5100 ca         1 JMZ      -0.111000
      3 C6           3.5310    -0.0000     1.2820 cp         1 JMZ      -0.116500
      4 C7           6.3020    -0.0000     1.3530 ca         1 JMZ      -0.248900
      5 C8           2.0500     0.0000     1.2290 cp         1 JMZ       0.564800
      6 C10          7.7140    -0.0000     1.7360 cc         1 JMZ       0.600800
      7 N12          8.8050    -0.0000     0.8630 nv         1 JMZ      -1.016800
      8 C1           4.2700    -0.0000     0.0920 ca         1 JMZ      -0.154000
      9 C2           5.6320    -0.0000     0.1250 ca         1 JMZ      -0.056000
     10 C3           1.3830     0.0000     0.0000 ca         1 JMZ      -0.435600
     11 C9           5.5670    -0.0000     2.5560 ca         1 JMZ      -0.029200
     12 C11          0.0100     0.0000     2.3050 ca         1 JMZ       0.949900
     13 N13         -0.7060    -0.0000     3.4900 nv         1 JMZ      -0.991500
     14 N14          6.4800     0.0000     3.5790 na         1 JMZ      -0.048100
     15 N15         -0.6470    -0.0010     1.1550 nb         1 JMZ      -0.804000
     16 N16          1.3320     0.0000     2.3500 nb         1 JMZ      -0.805000
     17 N17          7.7710    -0.0010     3.0420 nd         1 JMZ      -0.516100
     18 H4          -0.5480    -0.0000    -0.9350 h4         1 JMZ       0.028100
     19 HN12         9.2060     0.8670     0.5650 hn         1 JMZ       0.439800
     20 HN1A         9.2060    -0.8670     0.5650 hn         1 JMZ       0.439800
     21 H1           3.7550    -0.0000    -0.8610 ha         1 JMZ       0.135000
     22 H2           6.1960    -0.0000    -0.8000 ha         1 JMZ       0.137000
     23 H3           1.9380     0.0010    -0.9310 ha         1 JMZ       0.147000
     24 HN13        -0.2230    -0.0000     4.3660 hn         1 JMZ       0.449800
     25 HN1B        -1.7070    -0.0000     3.4700 hn         1 JMZ       0.449800
     26 HN14         6.2570    -0.0000     4.5550 hn         1 JMZ       0.335700
     27 H5           3.6050     0.1060     3.4230 ha         1 JMZ       0.155000
@<TRIPOS>BOND
     1     1    10 ar
     2     1    15 ar
     3     2     3 ar
     4     2    11 ar
     5     3     5 1
     6     3     8 ar
     7     4     6 1
     8     4     9 ar
     9     4    11 ar
    10     5    10 ar
    11     5    16 ar
    12     6     7 1
    13     6    17 2
    14     8     9 ar
    15    11    14 1
    16    12    13 1
    17    12    15 ar
    18    12    16 ar
    19    14    17 1
    20     1    18 1
    21     2    27 1
    22     7    19 1
    23     7    20 1
    24     8    21 1
    25     9    22 1
    26    10    23 1
    27    13    24 1
    28    13    25 1
    29    14    26 1
@<TRIPOS>SUBSTRUCTURE
     1 JMZ         1 TEMP              0 ****  ****    0 ROOT
