@<TRIPOS>MOLECULE
molecule
   67    70     1     0     0
SMALL
bcc


@<TRIPOS>ATOM
      1 C1           0.0000     0.0000     0.0000 c3         1 JN3      -0.068400
      2 C2           1.5220     0.0000     0.0000 c3         1 JN3      -0.090400
      3 C3           2.0610     0.0000     1.4240 c3         1 JN3       0.151100
      4 O3           3.4820     0.0830     1.3960 oh         1 JN3      -0.605800
      5 C4           1.5190     1.1880     2.2130 c3         1 JN3      -0.086400
      6 C5          -0.0240     1.2390     2.2140 c3         1 JN3      -0.041700
      7 C6          -0.5400     2.4400     3.0340 c3         1 JN3      -0.093400
      8 C7          -0.4130     3.7940     2.3310 c3         1 JN3       0.158100
      9 O7           0.9460     4.2170     2.3220 oh         1 JN3      -0.600800
     10 C8          -0.9760     3.7680     0.8970 c3         1 JN3      -0.039700
     11 C9          -0.3960     2.5770     0.0610 c3         1 JN3      -0.046700
     12 C10         -0.6370     1.1920     0.7750 c3         1 JN3      -0.042000
     13 C11         -0.8760     2.6150    -1.4170 c3         1 JN3      -0.070400
     14 C12         -0.7080     3.9870    -2.0920 c3         1 JN3      -0.066400
     15 C13         -1.3470     5.1070    -1.2640 c3         1 JN3      -0.052000
     16 C14         -0.7040     5.0760     0.1390 c3         1 JN3      -0.066700
     17 C15         -1.1470     6.3950     0.7660 c3         1 JN3      -0.076400
     18 C16         -1.1780     7.3820    -0.4150 c3         1 JN3      -0.078400
     19 C17         -0.9410     6.5400    -1.6900 c3         1 JN3      -0.052700
     20 C18         -2.8880     4.9430    -1.2610 c3         1 JN3      -0.075100
     21 C19         -2.1510     0.8680     0.8740 c3         1 JN3      -0.085100
     22 C20         -1.6400     7.1120    -2.9150 c3         1 JN3      -0.059700
     23 C21         -1.4110     6.1990    -4.1240 c3         1 JN3      -0.088100
     24 C22         -1.1580     8.5530    -3.1780 c3         1 JN3      -0.058400
     25 C23         -1.7570     9.1840    -4.4370 c3         1 JN3      -0.178400
     26 O25         -3.8870     9.5080    -3.3010 o          1 JN3      -0.859300
     27 C24         -3.2600     9.3270    -4.3350 c          1 JN3       0.890600
     28 O26         -3.8520     9.2200    -5.5530 o          1 JN3      -0.859300
     29 H11         -0.3430    -0.9240     0.4500 hc         1 JN3       0.038200
     30 H12         -0.3430     0.0370    -1.0270 hc         1 JN3       0.038200
     31 H21          1.8780     0.8850    -0.5140 hc         1 JN3       0.050200
     32 H22          1.8780    -0.8850    -0.5140 hc         1 JN3       0.050200
     33 H3           1.7630    -0.9180     1.9150 h1         1 JN3       0.016700
     34 HO3          3.8510    -0.7040     1.7620 ho         1 JN3       0.392000
     35 H41          1.8980     2.1020     1.7730 hc         1 JN3       0.059700
     36 H42          1.8670     1.1140     3.2360 hc         1 JN3       0.059700
     37 H5          -0.3640     0.3460     2.7250 hc         1 JN3       0.028700
     38 H61         -1.5850     2.2720     3.2640 hc         1 JN3       0.038700
     39 H62          0.0180     2.4840     3.9610 hc         1 JN3       0.038700
     40 H7          -0.9880     4.5160     2.8990 h1         1 JN3       0.024700
     41 HO7          1.1260     4.7140     3.1030 ho         1 JN3       0.393000
     42 H8          -2.0500     3.6380     0.9630 hc         1 JN3       0.052700
     43 H9           0.6770     2.7200     0.0330 hc         1 JN3       0.057700
     44 H111        -1.9250     2.3440    -1.4450 hc         1 JN3       0.033200
     45 H112        -0.3100     1.8830    -1.9810 hc         1 JN3       0.033200
     46 H121        -1.1780     3.9590    -3.0680 hc         1 JN3       0.046200
     47 H122         0.3490     4.1950    -2.2090 hc         1 JN3       0.046200
     48 H14          0.3690     5.1370     0.0000 hc         1 JN3       0.057700
     49 H151        -2.1350     6.2940     1.2000 hc         1 JN3       0.031700
     50 H152        -0.4300     6.7190     1.5110 hc         1 JN3       0.031700
     51 H161        -0.3890     8.1170    -0.3040 hc         1 JN3       0.051700
     52 H162        -2.1440     7.8690    -0.4660 hc         1 JN3       0.051700
     53 H17          0.1240     6.5340    -1.8880 hc         1 JN3       0.033700
     54 H181        -3.3500     5.8800    -0.9740 hc         1 JN3       0.036700
     55 H182        -3.2230     4.6640    -2.2530 hc         1 JN3       0.036700
     56 H183        -3.1670     4.1710    -0.5540 hc         1 JN3       0.036700
     57 H191        -2.6720     1.7070     1.3200 hc         1 JN3       0.033700
     58 H192        -2.5470     0.6830    -0.1170 hc         1 JN3       0.033700
     59 H193        -2.2930    -0.0120     1.4900 hc         1 JN3       0.033700
     60 H20         -2.7040     7.1430    -2.7130 hc         1 JN3       0.079700
     61 H211        -2.0470     5.3260    -4.0430 hc         1 JN3       0.030033
     62 H212        -0.3730     5.8900    -4.1520 hc         1 JN3       0.030033
     63 H213        -1.6520     6.7370    -5.0330 hc         1 JN3       0.030033
     64 H221        -1.4230     9.1660    -2.3250 hc         1 JN3       0.019700
     65 H222        -0.0790     8.5430    -3.2770 hc         1 JN3       0.019700
     66 H231        -1.3190    10.1630    -4.5830 hc         1 JN3       0.032200
     67 H232        -1.5190     8.5600    -5.2910 hc         1 JN3       0.032200
@<TRIPOS>BOND
     1     1     2 1
     2     1    12 1
     3     1    29 1
     4     1    30 1
     5     2     3 1
     6     2    31 1
     7     2    32 1
     8     3     4 1
     9     3     5 1
    10     3    33 1
    11     4    34 1
    12     5     6 1
    13     5    35 1
    14     5    36 1
    15     6    12 1
    16     6     7 1
    17     6    37 1
    18     7     8 1
    19     7    38 1
    20     7    39 1
    21     8    10 1
    22     8     9 1
    23     8    40 1
    24     9    41 1
    25    10    11 1
    26    10    16 1
    27    10    42 1
    28    11    13 1
    29    11    12 1
    30    11    43 1
    31    12    21 1
    32    13    14 1
    33    13    44 1
    34    13    45 1
    35    14    15 1
    36    14    46 1
    37    14    47 1
    38    15    20 1
    39    15    19 1
    40    15    16 1
    41    16    17 1
    42    16    48 1
    43    17    18 1
    44    17    49 1
    45    17    50 1
    46    18    19 1
    47    18    51 1
    48    18    52 1
    49    19    22 1
    50    19    53 1
    51    20    54 1
    52    20    55 1
    53    20    56 1
    54    21    57 1
    55    21    58 1
    56    21    59 1
    57    22    23 1
    58    22    24 1
    59    22    60 1
    60    23    61 1
    61    23    62 1
    62    23    63 1
    63    24    25 1
    64    24    64 1
    65    24    65 1
    66    25    27 1
    67    25    66 1
    68    25    67 1
    69    26    27 1
    70    27    28 1
@<TRIPOS>SUBSTRUCTURE
     1 JN3         1 TEMP              0 ****  ****    0 ROOT
