@<TRIPOS>MOLECULE
JN3
   67    70     1     0     0
SMALL
bcc


@<TRIPOS>ATOM
      1 C1         -0.0050    0.0660    0.1070 c3        1 JN3     -0.067400
      2 C2          1.4980    0.0330    0.2550 c3        1 JN3     -0.111400
      3 C3          1.8700    0.0320    1.7330 c3        1 JN3      0.143100
      4 O3          3.2800    0.0780    1.9240 oh        1 JN3     -0.603800
      5 C4          1.2920    1.2610    2.4210 c3        1 JN3     -0.082400
      6 C5         -0.2180    1.3380    2.2490 c3        1 JN3     -0.042700
      7 C6         -0.7560    2.5720    2.9590 c3        1 JN3     -0.105400
      8 C7         -0.4920    3.8840    2.2260 c3        1 JN3      0.143100
      9 O7          0.8870    4.2390    2.2530 oh        1 JN3     -0.591800
     10 C8         -0.9460    3.7980    0.7660 c3        1 JN3     -0.035700
     11 C9         -0.2960    2.5960    0.0650 c3        1 JN3     -0.046700
     12 C10        -0.6670    1.2800    0.7740 c3        1 JN3     -0.035000
     13 C11        -0.6010    2.5670   -1.4290 c3        1 JN3     -0.069400
     14 C12        -0.3690    3.8900   -2.1420 c3        1 JN3     -0.064400
     15 C13        -1.1150    5.0210   -1.4530 c3        1 JN3     -0.046000
     16 C14        -0.5950    5.0590    0.0060 c3        1 JN3     -0.066700
     17 C15        -1.0870    6.3990    0.5340 c3        1 JN3     -0.068400
     18 C16        -1.0250    7.3280   -0.6800 c3        1 JN3     -0.099400
     19 C17        -0.7680    6.4550   -1.9280 c3        1 JN3     -0.038700
     20 C18        -2.6160    4.8000   -1.5330 c3        1 JN3     -0.085100
     21 C19        -2.1720    1.0190    0.7320 c3        1 JN3     -0.089100
     22 C20        -1.5290    6.9790   -3.1400 c3        1 JN3     -0.061700
     23 C21        -1.2800    6.1350   -4.3740 c3        1 JN3     -0.083100
     24 C22        -1.1540    8.4320   -3.4340 c3        1 JN3     -0.054400
     25 C23        -2.2910    9.1850   -4.0850 c3        1 JN3     -0.196400
     26 O25        -3.3130    9.3590   -1.8920 o         1 JN3     -0.855300
     27 C24        -3.4880    9.4090   -3.1460 c         1 JN3      0.906600
     28 O26        -4.6080    9.6490   -3.6810 o         1 JN3     -0.855300
     29 H11        -0.2780    0.0410   -0.9790 hc        1 JN3      0.038700
     30 H12        -0.4300   -0.8650    0.5730 hc        1 JN3      0.038700
     31 H21         1.9620    0.9210   -0.2470 hc        1 JN3      0.046200
     32 H22         1.9060   -0.8870   -0.2380 hc        1 JN3      0.046200
     33 H3          1.4780   -0.9070    2.2200 h1        1 JN3      0.023700
     34 HO3         3.6670   -0.5470    1.3010 ho        1 JN3      0.394000
     35 H41         1.5410    1.2160    3.5130 hc        1 JN3      0.063200
     36 H42         1.7810    2.1810    2.0030 hc        1 JN3      0.063200
     37 H5         -0.6600    0.4330    2.7610 hc        1 JN3      0.033700
     38 H61        -1.8660    2.4640    3.0850 hc        1 JN3      0.039200
     39 H62        -0.3050    2.6280    3.9850 hc        1 JN3      0.039200
     40 H7         -1.0770    4.7070    2.7330 h1        1 JN3      0.035700
     41 HO7         1.1410    4.2740    3.1830 ho        1 JN3      0.389000
     42 H8         -2.0630    3.6770    0.7870 hc        1 JN3      0.056700
     43 H9          0.8210    2.7300    0.1740 hc        1 JN3      0.062700
     44 H111        0.0590    1.7980   -1.9140 hc        1 JN3      0.030700
     45 H112       -1.6630    2.2480   -1.5930 hc        1 JN3      0.030700
     46 H121       -0.7060    3.7920   -3.2060 hc        1 JN3      0.038200
     47 H122        0.7280    4.1220   -2.1570 hc        1 JN3      0.038200
     48 H14         0.5330    5.1140   -0.0320 hc        1 JN3      0.056700
     49 H151       -2.1330    6.3190    0.9200 hc        1 JN3      0.031700
     50 H152       -0.4410    6.7630    1.3690 hc        1 JN3      0.031700
     51 H161       -1.9820    7.9080   -0.8000 hc        1 JN3      0.078200
     52 H162       -0.1940    8.0660   -0.5570 hc        1 JN3      0.078200
     53 H17         0.3300    6.4760   -2.1710 hc        1 JN3      0.024700
     54 H181       -3.1550    5.6520   -1.0480 hc        1 JN3      0.037033
     55 H182       -2.9390    4.7390   -2.6000 hc        1 JN3      0.037033
     56 H183       -2.9210    3.8520   -1.0290 hc        1 JN3      0.037033
     57 H191       -2.4170    0.0860    1.2960 hc        1 JN3      0.034367
     58 H192       -2.7460    1.8590    1.1880 hc        1 JN3      0.034367
     59 H193       -2.5150    0.8890   -0.3230 hc        1 JN3      0.034367
     60 H20        -2.6320    6.9700   -2.8980 hc        1 JN3      0.088700
     61 H211       -1.6490    6.6710   -5.2820 hc        1 JN3      0.019367
     62 H212       -0.1890    5.9300   -4.5020 hc        1 JN3      0.019367
     63 H213       -1.8170    5.1580   -4.3090 hc        1 JN3      0.019367
     64 H221       -0.8970    8.9640   -2.4800 hc        1 JN3      0.024700
     65 H222       -0.2450    8.4560   -4.0920 hc        1 JN3      0.024700
     66 H231       -1.9270   10.1930   -4.4110 hc        1 JN3      0.022200
     67 H232       -2.6500    8.6440   -4.9960 hc        1 JN3      0.022200
@<TRIPOS>BOND
     1    1    2 1   
     2    1   12 1   
     3    1   29 1   
     4    1   30 1   
     5    2    3 1   
     6    2   31 1   
     7    2   32 1   
     8    3    4 1   
     9    3    5 1   
    10    3   33 1   
    11    4   34 1   
    12    5    6 1   
    13    5   35 1   
    14    5   36 1   
    15    6    7 1   
    16    6   12 1   
    17    6   37 1   
    18    7    8 1   
    19    7   38 1   
    20    7   39 1   
    21    8    9 1   
    22    8   10 1   
    23    8   40 1   
    24    9   41 1   
    25   10   11 1   
    26   10   16 1   
    27   10   42 1   
    28   11   12 1   
    29   11   13 1   
    30   11   43 1   
    31   12   21 1   
    32   13   14 1   
    33   13   44 1   
    34   13   45 1   
    35   14   15 1   
    36   14   46 1   
    37   14   47 1   
    38   15   16 1   
    39   15   19 1   
    40   15   20 1   
    41   16   17 1   
    42   16   48 1   
    43   17   18 1   
    44   17   49 1   
    45   17   50 1   
    46   18   19 1   
    47   18   51 1   
    48   18   52 1   
    49   19   22 1   
    50   19   53 1   
    51   20   54 1   
    52   20   55 1   
    53   20   56 1   
    54   21   57 1   
    55   21   58 1   
    56   21   59 1   
    57   22   23 1   
    58   22   24 1   
    59   22   60 1   
    60   23   61 1   
    61   23   62 1   
    62   23   63 1   
    63   24   25 1   
    64   24   64 1   
    65   24   65 1   
    66   25   27 1   
    67   25   66 1   
    68   25   67 1   
    69   26   27 1   
    70   27   28 1   
@<TRIPOS>SUBSTRUCTURE
     1 JN3         1 TEMP              0 ****  ****    0 ROOT
