@<TRIPOS>MOLECULE
JN4
   50    52     1     0     0
SMALL
bcc


@<TRIPOS>ATOM
      1 C1           0.0000     0.0000     0.0000 c3         1 JN4       0.067000
      2 N2           1.4710     0.0000     0.0000 n          1 JN4      -0.185800
      3 C3           2.1610     0.0000     1.2990 c3         1 JN4       0.163300
      4 C4           1.4560    -1.0050     2.1940 cc         1 JN4      -0.084400
      5 C5           0.2830    -1.5780     1.9000 cd         1 JN4      -0.028300
      6 C6          -0.4930    -1.3090     0.6210 c3         1 JN4       0.028900
      7 C7           2.1660     0.0010    -1.1550 c          1 JN4       0.589100
      8 O8           1.5800    -0.0940    -2.2170 o          1 JN4      -0.691100
      9 N9           3.5090     0.1070    -1.1330 ns         1 JN4      -0.075100
     10 C10          4.2180     0.2120    -2.3280 c2         1 JN4      -0.115400
     11 C11          5.5330     0.3160    -2.3060 c2         1 JN4      -0.262000
     12 S12          2.0600    -1.5690     3.7430 ss         1 JN4      -0.121800
     13 C13          0.7130    -2.5800     3.9910 cc         1 JN4       0.038500
     14 C14         -0.1580    -2.4930     2.9390 cd         1 JN4      -0.234600
     15 C15         -1.4110    -3.2470     2.8670 c          1 JN4       0.732700
     16 O16         -2.5460    -2.7180     3.3690 os         1 JN4      -0.310200
     17 C17         -3.6840    -3.4520     3.2800 c2         1 JN4       0.033100
     18 C18         -4.8150    -2.9730     3.7580 c2         1 JN4      -0.212000
     19 O19         -1.4290    -4.3500     2.3550 o          1 JN4      -0.559000
     20 N20          0.5230    -3.3830     5.1050 ns         1 JN4       0.023900
     21 C21          1.4440    -3.3960     6.0890 c          1 JN4       0.538100
     22 C22          1.2390    -4.2690     7.3010 c3         1 JN4      -0.028100
     23 C23          2.4030    -4.1010     8.2430 ca         1 JN4      -0.082300
     24 C24          2.3640    -3.1280     9.2240 ca         1 JN4      -0.082500
     25 C25          3.5080    -4.9250     8.1300 ca         1 JN4      -0.082500
     26 C26          4.5750    -4.7720     8.9940 ca         1 JN4      -0.096500
     27 C27          4.5390    -3.7950     9.9710 ca         1 JN4      -0.095000
     28 C28          3.4330    -2.9750    10.0880 ca         1 JN4      -0.096500
     29 O29          2.4380    -2.7070     6.0000 o          1 JN4      -0.581100
     30 H1          -0.3620     0.0770    -1.0180 h1         1 JN4       0.038700
     31 H1A         -0.3620     0.8370     0.5850 h1         1 JN4       0.038700
     32 H3           3.1810    -0.3320     1.1470 h1         1 JN4       0.031200
     33 H3A          2.0600     0.9840     1.7420 h1         1 JN4       0.031200
     34 H6          -0.3320    -2.1220    -0.0770 hc         1 JN4       0.036200
     35 H6A         -1.5480    -1.2250     0.8500 hc         1 JN4       0.036200
     36 HN9          3.9930     0.1510    -0.2590 hn         1 JN4       0.170500
     37 H10          3.6900     0.2080    -3.2730 h4         1 JN4       0.149000
     38 H11          6.0610     0.3200    -1.3600 ha         1 JN4       0.094500
     39 H11A         6.0850     0.3980    -3.2350 ha         1 JN4       0.094500
     40 H17         -3.6630    -4.4310     2.8180 h4         1 JN4       0.127000
     41 H18         -4.8350    -1.9940     4.2200 ha         1 JN4       0.101000
     42 H18A        -5.7240    -3.5580     3.6880 ha         1 JN4       0.101000
     43 HN20        -0.2790    -3.9770     5.1620 hn         1 JN4       0.175500
     44 H22          1.1710    -5.3050     6.9920 hc         1 JN4       0.035200
     45 H22A         0.3240    -3.9810     7.8030 hc         1 JN4       0.035200
     46 H24          1.4970    -2.4860     9.3160 ha         1 JN4       0.102500
     47 H25          3.5360    -5.6910     7.3640 ha         1 JN4       0.102500
     48 H26          5.4420    -5.4170     8.9040 ha         1 JN4       0.103000
     49 H27          5.3760    -3.6750    10.6490 ha         1 JN4       0.102000
     50 H28          3.4030    -2.2110    10.8550 ha         1 JN4       0.103000
@<TRIPOS>BOND
     1     1     2 1   
     2     1     6 1   
     3     1    30 1   
     4     1    31 1   
     5     2     3 1   
     6     2     7 1   
     7     3     4 1   
     8     3    32 1   
     9     3    33 1   
    10     4     5 2   
    11     4    12 1   
    12     5     6 1   
    13     5    14 1   
    14     6    34 1   
    15     6    35 1   
    16     7     8 2   
    17     7     9 1   
    18     9    10 1   
    19     9    36 1   
    20    10    11 2   
    21    10    37 1   
    22    11    38 1   
    23    11    39 1   
    24    12    13 1   
    25    13    14 2   
    26    13    20 1   
    27    14    15 1   
    28    15    16 1   
    29    15    19 2   
    30    16    17 1   
    31    17    18 2   
    32    17    40 1   
    33    18    41 1   
    34    18    42 1   
    35    20    21 1   
    36    20    43 1   
    37    21    22 1   
    38    21    29 2   
    39    22    23 1   
    40    22    44 1   
    41    22    45 1   
    42    23    24 ar  
    43    23    25 ar  
    44    24    28 ar  
    45    24    46 1   
    46    25    26 ar  
    47    25    47 1   
    48    26    27 ar  
    49    26    48 1   
    50    27    28 ar  
    51    27    49 1   
    52    28    50 1   
@<TRIPOS>SUBSTRUCTURE
     1 JN4         1 TEMP              0 ****  ****    0 ROOT
