@<TRIPOS>MOLECULE
molecule
   43    46     1     0     0
SMALL
bcc


@<TRIPOS>ATOM
      1 C1W          0.0000     0.0000     0.0000 ca         1 JN5      -0.087000
      2 C1X          1.3860     0.0000     0.0000 ca         1 JN5      -0.251300
      3 C1Y          2.0610     0.0000     1.2060 ca         1 JN5       0.419200
      4 N1Z          1.3990     0.0000     2.3480 nb         1 JN5      -0.686000
      5 C2A          0.0820    -0.0010     2.3860 ca         1 JN5       0.426200
      6 C1V         -0.6600     0.0050     1.2190 ca         1 JN5      -0.211600
      7 C1U         -2.1660     0.0040     1.2720 c3         1 JN5      -0.051100
      8 C1T         -2.6760     1.4460     1.2960 c3         1 JN5       0.248800
      9 N1S         -4.1400     1.4460     1.3470 nu         1 JN5      -0.898900
     10 C2          -4.8310     2.6440     1.3780 ca         1 JN5       0.949900
     11 N3          -6.1560     2.6260     1.4230 nb         1 JN5      -0.786000
     12 N1          -4.1550     3.7830     1.3640 nb         1 JN5      -0.791000
     13 C6          -4.7850     4.9450     1.3930 ca         1 JN5       0.508200
     14 C5          -6.1700     4.9620     1.4360 ca         1 JN5      -0.435600
     15 C4          -6.8470     3.7530     1.4530 ca         1 JN5       0.497600
     16 C1J         -8.3530     3.7230     1.5050 c3         1 JN5      -0.046200
     17 C1K         -8.8380     4.8450     2.3240 c1         1 JN5       0.212700
     18 N1L         -9.2270     5.7150     2.9440 n1         1 JN5      -0.340800
     19 C1I         -8.9060     3.8440     0.1090 cc         1 JN5       0.387200
     20 N1G         -9.6470     2.9640    -0.4510 nd         1 JN5      -0.557100
     21 C1E        -10.0710     3.2040    -1.7060 ca         1 JN5       0.118400
     22 C1C        -10.8840     2.4180    -2.5480 ca         1 JN5      -0.067000
     23 C1A        -11.2000     2.8500    -3.8000 ca         1 JN5      -0.128000
     24 C1B        -10.7290     4.0670    -4.2720 ca         1 JN5      -0.113000
     25 C1D         -9.9330     4.8560    -3.4710 ca         1 JN5      -0.089000
     26 C1F         -9.6000     4.4310    -2.1870 ca         1 JN5      -0.053100
     27 S1H         -8.6290     5.1760    -0.9210 ss         1 JN5      -0.073100
     28 H1W         -0.5540     0.0020    -0.9310 ha         1 JN5       0.139000
     29 H1X          1.9350    -0.0020    -0.9340 ha         1 JN5       0.140000
     30 H1Y          3.1440     0.0000     1.2150 h4         1 JN5       0.025100
     31 H2A         -0.4270     0.0010     3.3420 h4         1 JN5       0.025100
     32 H1U         -2.4950    -0.5110     2.1660 hc         1 JN5       0.056200
     33 H1UA        -2.5580    -0.5020     0.3980 hc         1 JN5       0.056200
     34 H1T         -2.3450     1.9610     0.4020 h1         1 JN5       0.056700
     35 H1TA        -2.2840     1.9530     2.1700 h1         1 JN5       0.056700
     36 HN1S        -4.6400     0.5790     1.3590 hn         1 JN5       0.458800
     37 H6          -4.2250     5.8730     1.3800 h4         1 JN5       0.034100
     38 H5          -6.7110     5.9000     1.4600 ha         1 JN5       0.153000
     39 H1J         -8.6810     2.7880     1.9440 hc         1 JN5       0.132700
     40 H1C        -11.2610     1.4650    -2.1960 ha         1 JN5       0.148000
     41 H1A        -11.8260     2.2350    -4.4360 ha         1 JN5       0.138000
     42 H1B        -10.9890     4.3980    -5.2710 ha         1 JN5       0.138000
     43 H1D         -9.5650     5.8060    -3.8400 ha         1 JN5       0.139000
@<TRIPOS>BOND
     1     6     1 ar
     2     1     2 ar
     3     1    28 1
     4     3     2 ar
     5     2    29 1
     6     4     3 ar
     7     3    30 1
     8     5     4 ar
     9     5     6 ar
    10     5    31 1
    11     7     6 1
    12     7     8 1
    13     7    32 1
    14     7    33 1
    15     9     8 1
    16     8    34 1
    17     8    35 1
    18     9    10 1
    19     9    36 1
    20    12    10 ar
    21    10    11 ar
    22    11    15 ar
    23    12    13 ar
    24    13    14 ar
    25    13    37 1
    26    14    15 ar
    27    14    38 1
    28    15    16 1
    29    16    19 1
    30    16    17 1
    31    16    39 1
    32    17    18 3
    33    27    19 1
    34    19    20 2
    35    20    21 1
    36    26    21 ar
    37    21    22 ar
    38    22    23 ar
    39    22    40 1
    40    24    23 ar
    41    23    41 1
    42    25    24 ar
    43    24    42 1
    44    26    25 ar
    45    25    43 1
    46    27    26 1
@<TRIPOS>SUBSTRUCTURE
     1 JN5         1 TEMP              0 ****  ****    0 ROOT
