@<TRIPOS>MOLECULE
JN7
   55    58     1     0     0
SMALL
bcc


@<TRIPOS>ATOM
      1 C1           0.0000     0.0000     0.0000 c3         1 JN7       0.030900
      2 C2           1.5300     0.0000     0.0000 c3         1 JN7       0.060000
      3 N3           2.0050     0.0000     1.3920 n          1 JN7      -0.139800
      4 C4           1.7000     1.1760     2.2230 c3         1 JN7       0.163300
      5 C5           0.2510     1.5540     1.9720 cc         1 JN7      -0.079400
      6 C6          -0.4990     1.0400     0.9910 cd         1 JN7      -0.039300
      7 S7          -0.6630     2.7160     2.9170 ss         1 JN7      -0.117800
      8 C8          -2.0630     2.5050     1.9730 cc         1 JN7       0.032500
      9 C9          -1.8440     1.5890     0.9810 cd         1 JN7      -0.227600
     10 C10          2.6960    -1.0430     1.8900 c          1 JN7       0.696100
     11 O11          2.9370    -2.0040     1.1880 o          1 JN7      -0.648000
     12 O12          3.1210    -1.0200     3.1690 os         1 JN7      -0.320200
     13 C13          3.8120    -2.1040     3.6080 c2         1 JN7       0.062100
     14 C14          4.2540    -2.1440     4.8470 c2         1 JN7      -0.232000
     15 C15         -2.8640     1.1990     0.0060 c          1 JN7       0.734700
     16 N16         -3.2610     3.1700     2.1790 ns         1 JN7       0.025900
     17 C17         -3.3740     4.0580     3.1880 c          1 JN7       0.534100
     18 C18         -4.6770     4.7810     3.4130 c3         1 JN7       0.010900
     19 C19         -4.5390     5.7080     4.5930 cc         1 JN7       0.017600
     20 S20         -4.8790     5.2790     6.2640 ss         1 JN7      -0.264800
     21 C21         -4.4470     6.8990     6.7990 cc         1 JN7       0.017900
     22 C22         -4.0900     7.6360     5.7460 cd         1 JN7      -0.126000
     23 C23         -4.1360     6.9780     4.5300 cd         1 JN7      -0.108000
     24 O24         -2.4270     4.2740     3.9130 o          1 JN7      -0.577100
     25 O25         -2.9820     1.8740    -1.1550 os         1 JN7      -0.402900
     26 O26         -3.6070     0.2650     0.2440 o          1 JN7      -0.574000
     27 C27         -4.0150     1.4320    -2.0740 c3         1 JN7       0.177100
     28 C28         -4.5150     2.6200    -2.9150 c3         1 JN7      -0.041900
     29 C29         -4.2210     2.2700    -4.3890 c3         1 JN7      -0.021400
     30 C30         -4.1450     0.7230    -4.4040 c3         1 JN7      -0.021400
     31 C31         -3.4350     0.4020    -3.0650 c3         1 JN7      -0.041900
     32 H1          -0.3610    -0.9790     0.2920 hc         1 JN7       0.036200
     33 H1A         -0.3610     0.2440    -0.9920 hc         1 JN7       0.036200
     34 H2           1.8920     0.8870    -0.5060 h1         1 JN7       0.040700
     35 H2A          1.8920    -0.8870    -0.5060 h1         1 JN7       0.040700
     36 H4           1.8060     0.8970     3.2650 h1         1 JN7       0.040200
     37 H4A          2.3300     1.9960     1.9020 h1         1 JN7       0.040200
     38 H13          3.9990    -2.9350     2.9390 h4         1 JN7       0.132000
     39 H14          4.0660    -1.3130     5.5170 ha         1 JN7       0.100500
     40 H14A         4.8050    -3.0080     5.1980 ha         1 JN7       0.100500
     41 HN16        -4.0510     2.9700     1.5990 hn         1 JN7       0.174500
     42 H18         -5.4610     4.0600     3.6100 hc         1 JN7       0.038200
     43 H18A        -4.9290     5.3560     2.5300 hc         1 JN7       0.038200
     44 H21         -4.4700     7.2440     7.8250 h4         1 JN7       0.148000
     45 H22         -3.7820     8.6700     5.8380 ha         1 JN7       0.120000
     46 H23         -3.8710     7.4600     3.5970 ha         1 JN7       0.119000
     47 H27         -4.8410     0.9940    -1.5280 h1         1 JN7       0.039700
     48 H28         -3.9830     3.5210    -2.6360 hc         1 JN7       0.025700
     49 H28A        -5.5810     2.7520    -2.7720 hc         1 JN7       0.025700
     50 H29         -5.0270     2.6150    -5.0270 hc         1 JN7       0.018200
     51 H29A        -3.2750     2.6980    -4.6970 hc         1 JN7       0.018200
     52 H30         -5.1390     0.2920    -4.4230 hc         1 JN7       0.018200
     53 H30A        -3.5530     0.3780    -5.2430 hc         1 JN7       0.018200
     54 H31         -2.3650     0.5330    -3.1640 hc         1 JN7       0.025700
     55 H31A        -3.6720    -0.6060    -2.7440 hc         1 JN7       0.025700
@<TRIPOS>BOND
     1     1     2 1   
     2     1     6 1   
     3     1    32 1   
     4     1    33 1   
     5     2     3 1   
     6     2    34 1   
     7     2    35 1   
     8     3     4 1   
     9     3    10 1   
    10     4     5 1   
    11     4    36 1   
    12     4    37 1   
    13     5     6 2   
    14     5     7 1   
    15     6     9 1   
    16     7     8 1   
    17     8     9 2   
    18     8    16 1   
    19     9    15 1   
    20    10    11 2   
    21    10    12 1   
    22    12    13 1   
    23    13    14 2   
    24    13    38 1   
    25    14    39 1   
    26    14    40 1   
    27    15    25 1   
    28    15    26 2   
    29    16    17 1   
    30    16    41 1   
    31    17    18 1   
    32    17    24 2   
    33    18    19 1   
    34    18    42 1   
    35    18    43 1   
    36    19    20 1   
    37    19    23 2   
    38    20    21 1   
    39    21    22 2   
    40    21    44 1   
    41    22    23 1   
    42    22    45 1   
    43    23    46 1   
    44    25    27 1   
    45    27    28 1   
    46    27    31 1   
    47    27    47 1   
    48    28    29 1   
    49    28    48 1   
    50    28    49 1   
    51    29    30 1   
    52    29    50 1   
    53    29    51 1   
    54    30    31 1   
    55    30    52 1   
    56    30    53 1   
    57    31    54 1   
    58    31    55 1   
@<TRIPOS>SUBSTRUCTURE
     1 JN7         1 TEMP              0 ****  ****    0 ROOT
