@<TRIPOS>MOLECULE
JN8
   58    61     1     0     0
SMALL
bcc


@<TRIPOS>ATOM
      1 C1           0.0000     0.0000     0.0000 cc         1 JN8      -0.034300
      2 C2           1.4530     0.0000     0.0000 cc         1 JN8      -0.226600
      3 C3           1.9970     0.0000     1.2550 cd         1 JN8       0.032500
      4 S4           0.7740    -0.0020     2.4400 ss         1 JN8      -0.128800
      5 C5          -0.5060    -0.0030     1.2390 cd         1 JN8      -0.077400
      6 C6          -1.9920    -0.0130     1.5500 c3         1 JN8       0.165300
      7 N7          -2.7130     0.2480     0.2950 n          1 JN8      -0.190800
      8 C8          -2.2660    -0.4560    -0.9160 c3         1 JN8       0.063000
      9 C9          -0.8480     0.0090    -1.2610 c3         1 JN8       0.023900
     10 N10          3.3550     0.0010     1.5250 ns         1 JN8       0.026900
     11 C11          3.7890     0.0010     2.8020 c          1 JN8       0.534100
     12 C12          5.2670     0.0030     3.0950 c3         1 JN8       0.010900
     13 C13          5.4830     0.0020     4.5870 cc         1 JN8       0.018600
     14 C14          5.5940    -1.0880     5.3470 cd         1 JN8      -0.109000
     15 C15          5.7900    -0.8410     6.6960 cd         1 JN8      -0.125000
     16 C16          5.8370     0.4490     7.0290 cc         1 JN8       0.016900
     17 S17          5.6340     1.4390     5.5900 ss         1 JN8      -0.265800
     18 O18          2.9900     0.0000     3.7130 o          1 JN8      -0.578100
     19 C19          2.2570     0.0000    -1.2240 c          1 JN8       0.735700
     20 O20          2.6270    -1.1670    -1.7880 os         1 JN8      -0.399900
     21 C24         -3.7530     1.1050     0.2570 c          1 JN8       0.604100
     22 C27          3.4230    -1.0910    -3.0000 c3         1 JN8       0.176100
     23 C28          3.1510    -2.3140    -3.9020 c3         1 JN8      -0.041900
     24 N28         -4.2120     1.6590     1.3970 ns         1 JN8      -0.235900
     25 C29          4.4990    -2.7010    -4.5350 c3         1 JN8      -0.020400
     26 O29         -4.2750     1.3800    -0.8060 o          1 JN8      -0.704100
     27 C30          5.5430    -1.7020    -3.9950 c3         1 JN8      -0.020400
     28 C31          4.9310    -1.1950    -2.6650 c3         1 JN8      -0.041900
     29 O31          2.5900     1.0530    -1.7330 o          1 JN8      -0.573000
     30 C32         -5.7150     3.0010     2.7840 c3         1 JN8      -0.009100
     31 C33         -5.4090     2.5040     1.3700 c3         1 JN8       0.067000
     32 H6          -2.2770    -0.9810     1.9420 h1         1 JN8       0.024700
     33 H6A         -2.2200     0.7630     2.2710 h1         1 JN8       0.024700
     34 H8          -2.2320    -1.5170    -0.6990 h1         1 JN8       0.041700
     35 H8A         -2.9220    -0.1790    -1.7320 h1         1 JN8       0.041700
     36 H9          -0.9060     1.0280    -1.6230 hc         1 JN8       0.039200
     37 H9A         -0.4210    -0.6990    -1.9610 hc         1 JN8       0.039200
     38 HN10         4.0150     0.0290     0.7730 hn         1 JN8       0.175500
     39 H12          5.7200     0.8880     2.6660 hc         1 JN8       0.038200
     40 H12A         5.7220    -0.8810     2.6640 hc         1 JN8       0.038200
     41 H14          5.5360    -2.0900     4.9400 ha         1 JN8       0.119000
     42 H15          5.8940    -1.6360     7.4240 ha         1 JN8       0.120000
     43 H16          5.9820     0.8290     8.0330 h4         1 JN8       0.148000
     44 H27          3.2190    -0.1730    -3.5380 h1         1 JN8       0.047700
     45 H28          2.7720    -3.1360    -3.3070 hc         1 JN8       0.023700
     46 H28A         2.4410    -2.0510    -4.6770 hc         1 JN8       0.023700
     47 HN28        -3.7530     1.4700     2.2650 hn         1 JN8       0.178500
     48 H29          4.7680    -3.7090    -4.2440 hc         1 JN8       0.016700
     49 H29A         4.4370    -2.6230    -5.6140 hc         1 JN8       0.016700
     50 H30          5.6730    -0.8800    -4.6880 hc         1 JN8       0.016700
     51 H30A         6.4850    -2.2030    -3.8100 hc         1 JN8       0.016700
     52 H31          5.0980    -1.9110    -1.8700 hc         1 JN8       0.023700
     53 H31A         5.3330    -0.2220    -2.4060 hc         1 JN8       0.023700
     54 H32         -4.8760     3.5790     3.1530 hc         1 JN8       0.007033
     55 H32A        -6.6010     3.6240     2.7640 hc         1 JN8       0.007033
     56 H32B        -5.8840     2.1530     3.4360 hc         1 JN8       0.007033
     57 H33         -5.2370     3.3520     0.7180 h1         1 JN8       0.023700
     58 H33A        -6.2490     1.9290     1.0000 h1         1 JN8       0.023700
@<TRIPOS>BOND
     1     1     2 1   
     2     1     5 2   
     3     1     9 1   
     4     2     3 2   
     5     2    19 1   
     6     3     4 1   
     7     3    10 1   
     8     4     5 1   
     9     5     6 1   
    10     6     7 1   
    11     6    32 1   
    12     6    33 1   
    13     7     8 1   
    14     7    21 1   
    15     8     9 1   
    16     8    34 1   
    17     8    35 1   
    18     9    36 1   
    19     9    37 1   
    20    10    11 1   
    21    10    38 1   
    22    11    12 1   
    23    11    18 2   
    24    12    13 1   
    25    12    39 1   
    26    12    40 1   
    27    13    14 2   
    28    13    17 1   
    29    14    15 1   
    30    14    41 1   
    31    15    16 2   
    32    15    42 1   
    33    16    17 1   
    34    16    43 1   
    35    19    20 1   
    36    19    29 2   
    37    20    22 1   
    38    21    24 1   
    39    21    26 2   
    40    22    23 1   
    41    22    28 1   
    42    22    44 1   
    43    23    25 1   
    44    23    45 1   
    45    23    46 1   
    46    24    31 1   
    47    24    47 1   
    48    25    27 1   
    49    25    48 1   
    50    25    49 1   
    51    27    28 1   
    52    27    50 1   
    53    27    51 1   
    54    28    52 1   
    55    28    53 1   
    56    30    31 1   
    57    30    54 1   
    58    30    55 1   
    59    30    56 1   
    60    31    57 1   
    61    31    58 1   
@<TRIPOS>SUBSTRUCTURE
     1 JN8         1 TEMP              0 ****  ****    0 ROOT
