@<TRIPOS>MOLECULE
molecule
   58    61     1     0     0
SMALL
bcc


@<TRIPOS>ATOM
      1 C1           0.0000     0.0000     0.0000 cc         1 JN8      -0.031300
      2 C2           1.4530     0.0000     0.0000 cc         1 JN8      -0.220600
      3 C3           1.9970     0.0000     1.2550 cd         1 JN8       0.108500
      4 S4           0.7740    -0.0020     2.4400 ss         1 JN8       0.046200
      5 C5          -0.5060    -0.0030     1.2390 cd         1 JN8      -0.139400
      6 C6          -1.9920    -0.0130     1.5500 c3         1 JN8       0.195300
      7 N7          -2.7130     0.2480     0.2950 n          1 JN8      -0.511800
      8 C8          -2.2660    -0.4560    -0.9160 c3         1 JN8       0.124000
      9 C9          -0.8480     0.0090    -1.2610 c3         1 JN8      -0.043100
     10 N10          3.3550     0.0010     1.5250 ns         1 JN8      -0.434100
     11 C11          3.7890     0.0010     2.8020 c          1 JN8       0.649100
     12 C12          5.2670     0.0030     3.0950 c3         1 JN8      -0.068100
     13 C13          5.4830     0.0020     4.5870 cc         1 JN8      -0.028400
     14 C14          5.5940    -1.0880     5.3470 cd         1 JN8      -0.135000
     15 C15          5.7900    -0.8410     6.6960 cd         1 JN8      -0.156000
     16 C16          5.8370     0.4490     7.0290 cc         1 JN8      -0.062100
     17 S17          5.6340     1.4390     5.5900 ss         1 JN8      -0.144800
     18 O18          2.9900     0.0000     3.7130 o          1 JN8      -0.566100
     19 C19          2.2570     0.0000    -1.2240 c          1 JN8       0.665700
     20 O20          2.6270    -1.1670    -1.7880 os         1 JN8      -0.417900
     21 C24         -3.7530     1.1050     0.2570 c          1 JN8       0.791100
     22 C27          3.4230    -1.0910    -3.0000 c3         1 JN8       0.139100
     23 C28          3.1510    -2.3140    -3.9020 c3         1 JN8      -0.093400
     24 N28         -4.2120     1.6590     1.3970 ns         1 JN8      -0.606900
     25 C29          4.4990    -2.7010    -4.5350 c3         1 JN8      -0.082400
     26 O29         -4.2750     1.3800    -0.8060 o          1 JN8      -0.658100
     27 C30          5.5430    -1.7020    -3.9950 c3         1 JN8      -0.082400
     28 C31          4.9310    -1.1950    -2.6650 c3         1 JN8      -0.093400
     29 O31          2.5900     1.0530    -1.7330 o          1 JN8      -0.538000
     30 C32         -5.7150     3.0010     2.7840 c3         1 JN8      -0.113100
     31 C33         -5.4090     2.5040     1.3700 c3         1 JN8       0.127000
     32 H6          -2.2770    -0.9810     1.9420 h1         1 JN8       0.052200
     33 H6A         -2.2200     0.7630     2.2710 h1         1 JN8       0.052200
     34 H8          -2.2320    -1.5170    -0.6990 h1         1 JN8       0.070200
     35 H8A         -2.9220    -0.1790    -1.7320 h1         1 JN8       0.070200
     36 H9          -0.9060     1.0280    -1.6230 hc         1 JN8       0.072200
     37 H9A         -0.4210    -0.6990    -1.9610 hc         1 JN8       0.072200
     38 HN10         4.0150     0.0290     0.7730 hn         1 JN8       0.339500
     39 H12          5.7200     0.8880     2.6660 hc         1 JN8       0.077200
     40 H12A         5.7220    -0.8810     2.6640 hc         1 JN8       0.077200
     41 H14          5.5360    -2.0900     4.9400 ha         1 JN8       0.147000
     42 H15          5.8940    -1.6360     7.4240 ha         1 JN8       0.149000
     43 H16          5.9820     0.8290     8.0330 h4         1 JN8       0.171000
     44 H27          3.2190    -0.1730    -3.5380 h1         1 JN8       0.079700
     45 H28          2.7720    -3.1360    -3.3070 hc         1 JN8       0.054950
     46 H28A         2.4410    -2.0510    -4.6770 hc         1 JN8       0.054950
     47 HN28        -3.7530     1.4700     2.2650 hn         1 JN8       0.309500
     48 H29          4.7680    -3.7090    -4.2440 hc         1 JN8       0.047950
     49 H29A         4.4370    -2.6230    -5.6140 hc         1 JN8       0.047950
     50 H30          5.6730    -0.8800    -4.6880 hc         1 JN8       0.047950
     51 H30A         6.4850    -2.2030    -3.8100 hc         1 JN8       0.047950
     52 H31          5.0980    -1.9110    -1.8700 hc         1 JN8       0.054950
     53 H31A         5.3330    -0.2220    -2.4060 hc         1 JN8       0.054950
     54 H32         -4.8760     3.5790     3.1530 hc         1 JN8       0.042033
     55 H32A        -6.6010     3.6240     2.7640 hc         1 JN8       0.042033
     56 H32B        -5.8840     2.1530     3.4360 hc         1 JN8       0.042033
     57 H33         -5.2370     3.3520     0.7180 h1         1 JN8       0.052700
     58 H33A        -6.2490     1.9290     1.0000 h1         1 JN8       0.052700
@<TRIPOS>BOND
     1     5     1 2
     2     9     1 1
     3     1     2 1
     4     3     2 2
     5     2    19 1
     6     4     3 1
     7     3    10 1
     8     5     4 1
     9     6     5 1
    10     7     6 1
    11     6    32 1
    12     6    33 1
    13    21     7 1
    14     7     8 1
    15     8     9 1
    16     8    34 1
    17     8    35 1
    18     9    36 1
    19     9    37 1
    20    11    10 1
    21    10    38 1
    22    18    11 2
    23    11    12 1
    24    12    13 1
    25    12    39 1
    26    12    40 1
    27    13    14 2
    28    13    17 1
    29    14    15 1
    30    14    41 1
    31    15    16 2
    32    15    42 1
    33    17    16 1
    34    16    43 1
    35    19    20 1
    36    19    29 2
    37    20    22 1
    38    26    21 2
    39    21    24 1
    40    28    22 1
    41    22    23 1
    42    22    44 1
    43    25    23 1
    44    23    45 1
    45    23    46 1
    46    31    24 1
    47    24    47 1
    48    27    25 1
    49    25    48 1
    50    25    49 1
    51    27    28 1
    52    27    50 1
    53    27    51 1
    54    28    52 1
    55    28    53 1
    56    31    30 1
    57    30    54 1
    58    30    55 1
    59    30    56 1
    60    31    57 1
    61    31    58 1
@<TRIPOS>SUBSTRUCTURE
     1 JN8         1 TEMP              0 ****  ****    0 ROOT
