@<TRIPOS>MOLECULE
JNA
   27    28     1     0     0
SMALL
bcc


@<TRIPOS>ATOM
      1 C13          0.0000     0.0000     0.0000 ca         1 JNA      -0.133000
      2 C15         -0.0000     0.0050     2.3950 ca         1 JNA      -0.133000
      3 O01          4.2370    -0.5450    -0.0530 o          1 JNA      -0.585300
      4 S02          3.8360    -0.0000     1.1960 sy         1 JNA       1.042200
      5 O03          4.2370    -0.5440     2.4460 o          1 JNA      -0.585300
      6 N04          4.3260     1.5820     1.1970 n7         1 JNA      -0.588100
      7 C05          4.0310     2.4400     2.3470 c3         1 JNA       0.327100
      8 C06          4.8760     3.6850     2.2740 cc         1 JNA      -0.017400
      9 C07          4.5240     4.8210     1.6690 cd         1 JNA      -0.113000
     10 C08          5.4630     5.8350     1.7380 cd         1 JNA      -0.132000
     11 C09          6.5800     5.5230     2.3980 cc         1 JNA       0.013900
     12 S10          6.4770     3.8660     2.9820 ss         1 JNA      -0.254800
     13 C11          2.0730     0.0000     1.1970 ca         1 JNA      -0.161500
     14 C12          1.3820     0.0000     0.0000 ca         1 JNA       0.004500
     15 C14         -0.6910     0.0050     1.1970 ca         1 JNA      -0.046000
     16 C16          1.3820    -0.0010     2.3930 ca         1 JNA       0.004500
     17 H131        -0.5420     0.0000    -0.9380 ha         1 JNA       0.109000
     18 H151        -0.5420     0.0070     3.3330 ha         1 JNA       0.109000
     19 H041         4.8480     1.9440     0.4230 hn         1 JNA       0.357800
     20 H052         2.9830     2.7140     2.3330 h1         1 JNA       0.021700
     21 H051         4.2520     1.9050     3.2630 h1         1 JNA       0.021700
     22 H071         3.5740     4.9400     1.1630 ha         1 JNA       0.121000
     23 H081         5.3040     6.8070     1.2890 ha         1 JNA       0.121000
     24 H091         7.4210     6.1880     2.5520 h4         1 JNA       0.149000
     25 H121         1.9240    -0.0040    -0.9380 ha         1 JNA       0.122500
     26 H141        -1.7740     0.0070     1.1970 ha         1 JNA       0.102000
     27 H161         1.9240    -0.0010     3.3320 ha         1 JNA       0.122500
@<TRIPOS>BOND
     1     1    14 ar  
     2     1    15 ar  
     3     1    17 1   
     4     2    15 ar  
     5     2    16 ar  
     6     2    18 1   
     7     3     4 2   
     8     4     5 2   
     9     4     6 1   
    10     4    13 1   
    11     6     7 1   
    12     6    19 1   
    13     7     8 1   
    14     7    20 1   
    15     7    21 1   
    16     8     9 2   
    17     8    12 1   
    18     9    10 1   
    19     9    22 1   
    20    10    11 2   
    21    10    23 1   
    22    11    12 1   
    23    11    24 1   
    24    13    14 ar  
    25    13    16 ar  
    26    14    25 1   
    27    15    26 1   
    28    16    27 1   
@<TRIPOS>SUBSTRUCTURE
     1 JNA         1 TEMP              0 ****  ****    0 ROOT
