@<TRIPOS>MOLECULE
molecule
   27    28     1     0     0
SMALL
bcc


@<TRIPOS>ATOM
      1 C13          0.0000     0.0000     0.0000 ca         1 JNA      -0.151000
      2 C15         -0.0000     0.0050     2.3950 ca         1 JNA      -0.151000
      3 O01          4.2370    -0.5450    -0.0530 o          1 JNA      -0.634800
      4 S02          3.8360    -0.0000     1.1960 sy         1 JNA       1.422200
      5 O03          4.2370    -0.5440     2.4460 o          1 JNA      -0.634800
      6 N04          4.3260     1.5820     1.1970 n7         1 JNA      -0.914100
      7 C05          4.0310     2.4400     2.3470 c3         1 JNA       0.316100
      8 C06          4.8760     3.6850     2.2740 cc         1 JNA      -0.055400
      9 C07          4.5240     4.8210     1.6690 cc         1 JNA      -0.141000
     10 C08          5.4630     5.8350     1.7380 cc         1 JNA      -0.162000
     11 C09          6.5800     5.5230     2.3980 cd         1 JNA      -0.065100
     12 S10          6.4770     3.8660     2.9820 ss         1 JNA      -0.136800
     13 C11          2.0730     0.0000     1.1970 ca         1 JNA      -0.314500
     14 C12          1.3820     0.0000     0.0000 ca         1 JNA      -0.029000
     15 C14         -0.6910     0.0050     1.1970 ca         1 JNA      -0.074000
     16 C16          1.3820    -0.0010     2.3930 ca         1 JNA      -0.029000
     17 H131        -0.5420     0.0000    -0.9380 ha         1 JNA       0.137000
     18 H151        -0.5420     0.0070     3.3330 ha         1 JNA       0.137000
     19 H041         4.8480     1.9440     0.4230 hn         1 JNA       0.461800
     20 H052         2.9830     2.7140     2.3330 h1         1 JNA       0.057700
     21 H051         4.2520     1.9050     3.2630 h1         1 JNA       0.057700
     22 H071         3.5740     4.9400     1.1630 ha         1 JNA       0.149000
     23 H081         5.3040     6.8070     1.2890 ha         1 JNA       0.149000
     24 H091         7.4210     6.1880     2.5520 h4         1 JNA       0.173000
     25 H121         1.9240    -0.0040    -0.9380 ha         1 JNA       0.150000
     26 H141        -1.7740     0.0070     1.1970 ha         1 JNA       0.134000
     27 H161         1.9240    -0.0010     3.3320 ha         1 JNA       0.150000
@<TRIPOS>BOND
     1    10     9 1
     2    10    11 2
     3     9     8 2
     4    11    12 1
     5     8    12 1
     6     8     7 1
     7     7     6 1
     8     5     4 2
     9     6     4 1
    10     4     3 2
    11     4    13 1
    12    16    13 ar
    13    16     2 ar
    14    13    14 ar
    15     2    15 ar
    16    14     1 ar
    17    15     1 ar
    18     1    17 1
    19     2    18 1
    20     6    19 1
    21     7    20 1
    22     7    21 1
    23     9    22 1
    24    10    23 1
    25    11    24 1
    26    14    25 1
    27    15    26 1
    28    16    27 1
@<TRIPOS>SUBSTRUCTURE
     1 JNA         1 TEMP              0 ****  ****    0 ROOT
