@<TRIPOS>MOLECULE
molecule
   20    21     1     0     0
SMALL
bcc


@<TRIPOS>ATOM
      1 C01          0.0000     0.0000     0.0000 c3         1 JND      -0.090100
      2 C02          1.5300     0.0000     0.0000 c3         1 JND      -0.005100
      3 C03          2.0330     0.0000     1.4200 cc         1 JND      -0.047400
      4 C04          2.2800    -1.0900     2.1230 cd         1 JND      -0.087000
      5 C05          2.7580    -0.8490     3.4710 cd         1 JND      -0.245600
      6 C06          3.1200    -1.7750     4.4970 c          1 JND       0.717100
      7 O07          3.0510    -2.9760     4.3030 o          1 JND      -0.632500
      8 N08          3.5410    -1.2940     5.6840 ns         1 JND      -0.462400
      9 C09          3.6160     0.0450     5.8940 cd         1 JND       0.503800
     10 N10          3.2910     0.9040     4.9730 nc         1 JND      -0.626100
     11 C11          2.8600     0.5090     3.7570 cc         1 JND       0.256300
     12 S12          2.3710     1.4470     2.3510 ss         1 JND      -0.078800
     13 H012        -0.3610     0.8250     0.6020 hc         1 JND       0.039700
     14 H013        -0.3610     0.1090    -1.0160 hc         1 JND       0.039700
     15 H011        -0.3610    -0.9340     0.4130 hc         1 JND       0.039700
     16 H021         1.8910     0.8850    -0.5110 hc         1 JND       0.054700
     17 H022         1.8910    -0.8840    -0.5110 hc         1 JND       0.054700
     18 H041         2.1380    -2.0870     1.7240 ha         1 JND       0.167000
     19 H081         3.7990    -1.9270     6.4140 hn         1 JND       0.340500
     20 H091         3.9580     0.4090     6.8560 h5         1 JND       0.061800
@<TRIPOS>BOND
     1     1     2 1
     2     2     3 1
     3     3     4 2
     4     3    12 1
     5     4     5 1
     6     7     6 2
     7     5     6 1
     8     5    11 2
     9    12    11 1
    10     6     8 1
    11    11    10 1
    12     8     9 1
    13    10     9 2
    14     1    13 1
    15     1    14 1
    16     1    15 1
    17     2    16 1
    18     2    17 1
    19     4    18 1
    20     8    19 1
    21     9    20 1
@<TRIPOS>SUBSTRUCTURE
     1 JND         1 TEMP              0 ****  ****    0 ROOT
