@<TRIPOS>MOLECULE
JNF
   44    47     1     0     0
SMALL
bcc


@<TRIPOS>ATOM
      1 C01          0.0000     0.0000     0.0000 c3         1 JNF       0.199100
      2 N02          1.4640     0.0000     0.0000 nh         1 JNF      -0.438300
      3 C03          2.1570    -0.0020    -1.1990 ca         1 JNF       0.748900
      4 N04          1.4780    -0.0020    -2.3350 nb         1 JNF      -0.695000
      5 C05          2.1170    -0.0030    -3.5060 ca         1 JNF       0.601100
      6 C06          1.3620    -0.0030    -4.7710 cc         1 JNF      -0.524900
      7 N07          1.8820     0.1280    -6.0410 na         1 JNF       0.661700
      8 C08          0.8280     0.0710    -6.9130 cc         1 JNF      -0.245300
      9 C09          1.0630     0.1800    -8.2960 cc         1 JNF      -0.019000
     10 C10          2.3390     0.3390    -8.7460 cd         1 JNF      -0.134000
     11 C11          3.3970     0.3920    -7.8270 cd         1 JNF      -0.075000
     12 C12          3.1530     0.2860    -6.5020 cc         1 JNF      -0.313300
     13 N13         -0.2900    -0.0870    -6.2110 nd         1 JNF      -0.257600
     14 C14         -0.0020    -0.1400    -4.9160 cd         1 JNF       0.118600
     15 C15          3.5200    -0.0040    -3.5140 ca         1 JNF      -0.476600
     16 C16          4.1830    -0.0030    -2.3030 ca         1 JNF       0.508200
     17 N17          3.4820     0.0030    -1.1780 nb         1 JNF      -0.715000
     18 C18          2.1970     0.0000     1.2690 c3         1 JNF       0.133500
     19 C19          1.8270    -1.2480     2.0720 c3         1 JNF      -0.043400
     20 C20          2.5920    -1.2480     3.3970 c3         1 JNF      -0.018400
     21 C21          2.2220     0.0030     4.1990 c3         1 JNF      -0.027400
     22 C22          2.5930     1.2510     3.3950 c3         1 JNF      -0.018400
     23 C23          1.8270     1.2500     2.0700 c3         1 JNF      -0.043400
     24 H01         -0.3610    -0.8960    -0.4890 h1         1 JNF       0.014033
     25 H01A        -0.3610     0.0240     1.0210 h1         1 JNF       0.014033
     26 H01B        -0.3610     0.8720    -0.5320 h1         1 JNF       0.014033
     27 H09          0.2380     0.1370    -8.9960 ha         1 JNF       0.125000
     28 H10          2.5350     0.4240    -9.8080 ha         1 JNF       0.117000
     29 H11          4.4130     0.5180    -8.1800 ha         1 JNF       0.116000
     30 H12          3.9770     0.3290    -5.8000 h4         1 JNF       0.161000
     31 H14         -0.7160    -0.2710    -4.1110 h4         1 JNF       0.153000
     32 H15          4.0690    -0.0060    -4.4470 ha         1 JNF       0.133000
     33 H16          5.2660    -0.0010    -2.2730 h4         1 JNF      -0.022900
     34 H18          3.2630    -0.0000     1.0760 h1         1 JNF       0.074700
     35 H19          2.0910    -2.1330     1.5040 hc         1 JNF       0.020700
     36 H19A         0.7620    -1.2460     2.2710 hc         1 JNF       0.020700
     37 H20          2.3280    -2.1310     3.9650 hc         1 JNF       0.015450
     38 H20A         3.6570    -1.2450     3.1970 hc         1 JNF       0.015450
     39 H21          2.7670     0.0030     5.1350 hc         1 JNF       0.013700
     40 H21A         1.1570     0.0030     4.3940 hc         1 JNF       0.013700
     41 H22          3.6570     1.2480     3.1960 hc         1 JNF       0.015450
     42 H22A         2.3290     2.1350     3.9620 hc         1 JNF       0.015450
     43 H23          2.0920     2.1330     1.5010 hc         1 JNF       0.020700
     44 H23A         0.7630     1.2480     2.2690 hc         1 JNF       0.020700
@<TRIPOS>BOND
     1     1     2 1   
     2     1    24 1   
     3     1    25 1   
     4     1    26 1   
     5     2     3 1   
     6     2    18 1   
     7     3     4 ar  
     8     3    17 ar  
     9     4     5 ar  
    10     5     6 1   
    11     5    15 ar  
    12     6     7 1   
    13     6    14 2   
    14     7     8 1   
    15     7    12 1   
    16     8     9 1   
    17     8    13 2   
    18     9    10 2   
    19     9    27 1   
    20    10    11 1   
    21    10    28 1   
    22    11    12 2   
    23    11    29 1   
    24    12    30 1   
    25    13    14 1   
    26    14    31 1   
    27    15    16 ar  
    28    15    32 1   
    29    16    17 ar  
    30    16    33 1   
    31    18    19 1   
    32    18    23 1   
    33    18    34 1   
    34    19    20 1   
    35    19    35 1   
    36    19    36 1   
    37    20    21 1   
    38    20    37 1   
    39    20    38 1   
    40    21    22 1   
    41    21    39 1   
    42    21    40 1   
    43    22    23 1   
    44    22    41 1   
    45    22    42 1   
    46    23    43 1   
    47    23    44 1   
@<TRIPOS>SUBSTRUCTURE
     1 JNF         1 TEMP              0 ****  ****    0 ROOT
