@<TRIPOS>MOLECULE
molecule
   18    18     1     0     0
SMALL
bcc


@<TRIPOS>ATOM
      1 O01          0.0000     0.0000     0.0000 o          1 JNG      -0.824800
      2 C02          1.2080     0.0000     0.0000 c          1 JNG       0.905600
      3 O03          1.8800     0.0000     1.1620 o          1 JNG      -0.824800
      4 C04          1.9610    -0.0060    -1.3050 c3         1 JNG      -0.105300
      5 S05          0.7820    -0.0130    -2.6840 ss         1 JNG      -0.189000
      6 C06          1.8290    -0.0190    -4.1010 ca         1 JNG       0.037900
      7 C07          1.2750    -0.0250    -5.3760 ca         1 JNG      -0.140000
      8 C08          2.0980    -0.0300    -6.4840 ca         1 JNG      -0.109500
      9 C09          3.4730    -0.0290    -6.3280 ca         1 JNG      -0.009600
     10 Cl10         4.5040    -0.0350    -7.7240 cl         1 JNG      -0.150400
     11 C11          4.0270    -0.0230    -5.0600 ca         1 JNG      -0.109500
     12 C12          3.2100    -0.0120    -3.9470 ca         1 JNG      -0.140000
     13 H042         2.5830     0.8790    -1.3670 h1         1 JNG       0.054700
     14 H041         2.5840    -0.8900    -1.3590 h1         1 JNG       0.054700
     15 H071         0.1990    -0.0260    -5.4990 ha         1 JNG       0.146000
     16 H081         1.6670    -0.0350    -7.4780 ha         1 JNG       0.129500
     17 H111         5.1040    -0.0200    -4.9400 ha         1 JNG       0.129500
     18 H121         3.6450    -0.0070    -2.9540 ha         1 JNG       0.146000
@<TRIPOS>BOND
     1     4     5 1
     2     4     2 1
     3     5     6 1
     4    12     6 ar
     5    12    11 ar
     6     6     7 ar
     7     2     1 1
     8     2     3 1
     9    11     9 ar
    10     7     8 ar
    11     9     8 ar
    12     9    10 1
    13     4    13 1
    14     4    14 1
    15     7    15 1
    16     8    16 1
    17    11    17 1
    18    12    18 1
@<TRIPOS>SUBSTRUCTURE
     1 JNG         1 TEMP              0 ****  ****    0 ROOT
