@<TRIPOS>MOLECULE
molecule
   51    53     1     0     0
SMALL
bcc


@<TRIPOS>ATOM
      1 N1           0.0000     0.0000     0.0000 n          1 JNH      -0.462800
      2 C1           1.4700     0.0000     0.0000 c3         1 JNH       0.076700
      3 C2           1.9310     0.0000     1.4730 c3         1 JNH      -0.083400
      4 C3           0.6980     0.5690     2.2230 c3         1 JNH      -0.081400
      5 C4          -0.4700    -0.0300     1.4000 c3         1 JNH       0.068000
      6 C5          -0.7890     0.0200    -1.0930 c          1 JNH       0.661100
      7 C6          -2.2880     0.0130    -0.9400 c3         1 JNH       0.043500
      8 O1          -0.2920     0.0430    -2.1990 o          1 JNH      -0.695100
      9 N2          -2.9080     0.5110    -2.1750 nz         1 JNH      -0.794600
     10 C7          -2.7670    -1.4140    -0.6680 c3         1 JNH      -0.040100
     11 C8          -6.9710    -1.3860     0.1090 cp         1 JNH       0.041000
     12 C9          -6.0650    -1.2400     1.1570 ca         1 JNH      -0.103000
     13 C10         -4.7090    -1.2550     0.9020 ca         1 JNH      -0.124500
     14 C11         -4.2490    -1.4040    -0.3950 ca         1 JNH      -0.195300
     15 C12         -5.1440    -1.5480    -1.4390 ca         1 JNH      -0.124500
     16 C13         -6.5020    -1.5400    -1.1950 ca         1 JNH      -0.103000
     17 C14        -11.1520    -1.3550     0.8810 ca         1 JNH      -0.089000
     18 C15        -10.6540    -0.7160    -0.2390 ca         1 JNH      -0.118000
     19 C16         -9.2970    -0.7160    -0.4910 ca         1 JNH      -0.103500
     20 C17         -8.4300    -1.3740     0.3780 cp         1 JNH      -0.096000
     21 C18         -8.9370    -2.0190     1.5040 ca         1 JNH      -0.103500
     22 C19        -10.2950    -2.0060     1.7510 ca         1 JNH      -0.118000
     23 C20          1.9910    -1.2520    -0.7080 c3         1 JNH       0.083800
     24 N3           1.4170    -1.3250    -2.0580 nz         1 JNH      -0.816600
     25 H1           1.8360     0.8900    -0.4980 h1         1 JNH       0.101700
     26 H21          2.7890     0.6470     1.6040 hc         1 JNH       0.093200
     27 H22          2.1470    -1.0080     1.8050 hc         1 JNH       0.093200
     28 H31          0.6850     1.6520     2.1790 hc         1 JNH       0.097700
     29 H32          0.6710     0.2140     3.2460 hc         1 JNH       0.097700
     30 H41         -0.6640    -1.0500     1.7100 h1         1 JNH       0.074700
     31 H42         -1.3590     0.5800     1.5110 h1         1 JNH       0.074700
     32 H6          -2.5700     0.6520    -0.1120 hx         1 JNH       0.143700
     33 HN21        -2.8860    -0.2060    -2.8730 hn         1 JNH       0.471133
     34 HN22        -3.8580     0.7690    -1.9910 hn         1 JNH       0.471133
     35 H71         -2.5630    -2.0340    -1.5330 hc         1 JNH       0.083200
     36 H72         -2.2430    -1.8130     0.1920 hc         1 JNH       0.083200
     37 H12         -4.7780    -1.6680    -2.4520 ha         1 JNH       0.120500
     38 H13         -7.2010    -1.6540    -2.0140 ha         1 JNH       0.167000
     39 H14        -12.2180    -1.3500     1.0760 ha         1 JNH       0.153000
     40 H15        -11.3290    -0.2060    -0.9160 ha         1 JNH       0.150000
     41 H16         -8.9080    -0.2140    -1.3690 ha         1 JNH       0.129000
     42 H18         -8.2670    -2.5280     2.1860 ha         1 JNH       0.129000
     43 H19        -10.6910    -2.5060     2.6260 ha         1 JNH       0.150000
     44 H201         3.0710    -1.2040    -0.7760 hx         1 JNH       0.123200
     45 H202         1.7030    -2.1310    -0.1450 hx         1 JNH       0.123200
     46 HN31         1.4590    -0.4220    -2.4880 hn         1 JNH       0.464133
     47 HN32         0.4640    -1.6230    -1.9990 hn         1 JNH       0.464133
     48 H9          -6.4240    -1.1210     2.1720 ha         1 JNH       0.167000
     49 H23         -2.3960     1.3030    -2.5100 hn         1 JNH       0.471133
     50 H33          1.9250    -1.9960    -2.6000 hn         1 JNH       0.464133
     51 H10         -4.0040    -1.1420     1.7160 ha         1 JNH       0.120500
@<TRIPOS>BOND
     1     1     2 1
     2     1     5 1
     3     1     6 1
     4     2     3 1
     5     2    23 1
     6     2    25 1
     7     3     4 1
     8     3    26 1
     9     3    27 1
    10     4     5 1
    11     4    28 1
    12     4    29 1
    13     5    30 1
    14     5    31 1
    15     6     7 1
    16     6     8 2
    17     7     9 1
    18     7    10 1
    19     7    32 1
    20     9    33 1
    21     9    34 1
    22    10    14 1
    23    10    35 1
    24    10    36 1
    25    11    12 ar
    26    11    16 ar
    27    11    20 1
    28    12    13 ar
    29    12    48 1
    30    13    14 ar
    31    13    51 1
    32    14    15 ar
    33    15    16 ar
    34    15    37 1
    35    16    38 1
    36    17    18 ar
    37    17    22 ar
    38    17    39 1
    39    18    19 ar
    40    18    40 1
    41    19    20 ar
    42    19    41 1
    43    20    21 ar
    44    21    22 ar
    45    21    42 1
    46    22    43 1
    47    23    24 1
    48    23    44 1
    49    23    45 1
    50    24    46 1
    51    24    47 1
    52    49     9 1
    53    50    24 1
@<TRIPOS>SUBSTRUCTURE
     1 JNH         1 TEMP              0 ****  ****    0 ROOT
