@<TRIPOS>MOLECULE
molecule
   69    74     1     0     0
SMALL
bcc


@<TRIPOS>ATOM
      1 C2           0.0000     0.0000     0.0000 ca         1 JNI       0.975900
      2 C4           2.0060     0.0000     1.1360 ca         1 JNI       0.522200
      3 C5           1.3210     0.0000     2.3360 ca         1 JNI      -0.500600
      4 C6          -0.0750     0.0100     2.3040 ca         1 JNI       0.769200
      5 C11         -2.8150    -2.0730     4.8660 ca         1 JNI      -0.110500
      6 C12         -3.1980    -3.3920     5.0140 ca         1 JNI      -0.134500
      7 C15         -2.9130    -2.3110     2.4850 ca         1 JNI      -0.110500
      8 C16         -0.1480     0.1050     4.7110 ca         1 JNI       0.150600
      9 C17          0.3950    -1.0280     5.3000 ca         1 JNI      -0.122000
     10 C18          1.0500    -0.9310     6.5120 ca         1 JNI      -0.126000
     11 C19          1.1680     0.2940     7.1470 ca         1 JNI      -0.125000
     12 C21         -0.0280     1.3450     5.3510 cp         1 JNI      -0.042000
     13 C23         -0.2270     2.9330     3.4390 ca         1 JNI      -0.101000
     14 C24         -0.7630     4.0670     2.8600 ca         1 JNI      -0.121000
     15 C27         -1.5230     3.3350     5.4330 ca         1 JNI      -0.112000
     16 C31         -4.8040     6.8100     6.9340 ca         1 JNI       0.903900
     17 C33         -3.4340     4.9610     6.8830 ca         1 JNI       0.472200
     18 C35         -6.1550     6.2310     9.4100 c3         1 JNI       0.221300
     19 C36         -7.1330     7.0720    10.2350 c3         1 JNI       0.151300
     20 C38         -8.1490     7.8900     8.1960 c3         1 JNI       0.151300
     21 C39         -7.1720     7.0500     7.3710 c3         1 JNI       0.221300
     22 N1          -0.6750     0.0010    -1.2080 nv         1 JNI      -0.995500
     23 N3           1.3250     0.0000     0.0000 nb         1 JNI      -0.836000
     24 N7          -0.6940     0.0050     1.1280 nb         1 JNI      -0.869000
     25 N8          -0.8050     0.0100     3.4830 nh         1 JNI      -0.691700
     26 C9          -2.2660    -0.0900     3.4410 c3         1 JNI       0.288100
     27 C10         -2.6760    -1.5310     3.6020 ca         1 JNI      -0.116300
     28 C13         -3.4400    -4.1710     3.8980 ca         1 JNI      -0.124000
     29 C14         -3.3010    -3.6290     2.6340 ca         1 JNI      -0.134500
     30 C20          0.6340     1.4290     6.5730 ca         1 JNI      -0.115000
     31 C22         -0.6050     2.5620     4.7300 cp         1 JNI      -0.036000
     32 C25         -1.6710     4.8420     3.5560 ca         1 JNI      -0.120000
     33 C26         -2.0510     4.4820     4.8480 cp         1 JNI      -0.032000
     34 C28         -3.0330     5.3110     5.5910 cp         1 JNI      -0.308600
     35 C29         -3.5730     6.4660     5.0190 ca         1 JNI       0.472200
     36 N30         -4.4430     7.1780     5.7130 nb         1 JNI      -0.742000
     37 N32         -4.3100     5.7250     7.5110 nb         1 JNI      -0.742000
     38 N34         -5.9160     6.8890     8.1180 nh         1 JNI      -0.777300
     39 N37         -8.3890     7.2320     9.4880 n7         1 JNI      -0.821200
     40 H1           3.0890    -0.0040     1.1250 h4         1 JNI       0.026100
     41 H2           1.8540     0.0020     3.2780 ha         1 JNI       0.151000
     42 H3          -2.6280    -1.4620     5.7410 ha         1 JNI       0.137000
     43 H4          -3.3070    -3.8160     6.0050 ha         1 JNI       0.129000
     44 H5          -2.8040    -1.8860     1.4950 ha         1 JNI       0.137000
     45 H6           0.3060    -1.9900     4.8090 ha         1 JNI       0.151000
     46 H7           1.4720    -1.8180     6.9690 ha         1 JNI       0.136000
     47 H8           1.6830     0.3610     8.0980 ha         1 JNI       0.135000
     48 H10         -0.4690     4.3510     1.8570 ha         1 JNI       0.137000
     49 H11         -1.8170     3.0530     6.4360 ha         1 JNI       0.135000
     50 H12         -3.0330     4.0750     7.3610 h4         1 JNI       0.035100
     51 H13         -6.5790     5.2490     9.2410 h1         1 JNI       0.047450
     52 H14         -5.2180     6.1390     9.9460 h1         1 JNI       0.047450
     53 H15         -6.6990     8.0470    10.4240 h1         1 JNI       0.040950
     54 H16         -7.3340     6.5720    11.1750 h1         1 JNI       0.040950
     55 H17         -7.7250     8.8730     8.3660 h1         1 JNI       0.040950
     56 H18         -9.0860     7.9830     7.6600 h1         1 JNI       0.040950
     57 H19         -7.6050     6.0750     7.1830 h1         1 JNI       0.047450
     58 H20         -6.9700     7.5500     6.4320 h1         1 JNI       0.047450
     59 H21         -1.6470     0.2410    -1.2380 hn         1 JNI       0.448300
     60 H22         -0.1880    -0.2200    -2.0540 hn         1 JNI       0.448300
     61 H23         -2.6920     0.4990     4.2450 h1         1 JNI       0.071200
     62 H24         -2.6260     0.2840     2.4900 h1         1 JNI       0.071200
     63 H25         -3.7410    -5.2050     4.0140 ha         1 JNI       0.128000
     64 H26         -3.4890    -4.2410     1.7600 ha         1 JNI       0.129000
     65 H27          0.7300     2.3850     7.0730 ha         1 JNI       0.140000
     66 H28         -2.0840     5.7320     3.0980 ha         1 JNI       0.130000
     67 H29         -3.2850     6.7720     4.0210 h4         1 JNI       0.035100
     68 H30         -9.0310     7.7790    10.0270 hn         1 JNI       0.352800
     69 H9           0.4840     2.3300     2.8890 ha         1 JNI       0.147000
@<TRIPOS>BOND
     1    28    29 ar
     2    28     6 ar
     3    29     7 ar
     4     6     5 ar
     5     7    27 ar
     6     5    27 ar
     7    27    26 1
     8    22     1 1
     9    24     1 ar
    10    24     4 ar
    11     9    10 ar
    12     9     8 ar
    13     1    23 ar
    14    26    25 1
    15    10    11 ar
    16    25     4 1
    17    25     8 1
    18     4     3 ar
    19    23     2 ar
    20     8    12 ar
    21     3     2 ar
    22    11    30 ar
    23    12    30 ar
    24    12    31 1
    25    31    13 ar
    26    31    15 ar
    27    13    14 ar
    28    14    32 ar
    29    15    33 ar
    30    32    33 ar
    31    33    34 1
    32    34    35 ar
    33    34    17 ar
    34    35    36 ar
    35    17    37 ar
    36    36    16 ar
    37    37    16 ar
    38    16    38 1
    39    18    38 1
    40    18    19 1
    41    38    21 1
    42    19    39 1
    43    21    20 1
    44    39    20 1
    45     2    40 1
    46     3    41 1
    47     5    42 1
    48     6    43 1
    49     7    44 1
    50     9    45 1
    51    10    46 1
    52    11    47 1
    53    13    69 1
    54    14    48 1
    55    15    49 1
    56    17    50 1
    57    18    51 1
    58    18    52 1
    59    19    53 1
    60    19    54 1
    61    20    55 1
    62    20    56 1
    63    21    57 1
    64    21    58 1
    65    22    59 1
    66    22    60 1
    67    26    61 1
    68    26    62 1
    69    28    63 1
    70    29    64 1
    71    30    65 1
    72    32    66 1
    73    35    67 1
    74    39    68 1
@<TRIPOS>SUBSTRUCTURE
     1 JNI         1 TEMP              0 ****  ****    0 ROOT
