@<TRIPOS>MOLECULE
JNI
   69    74     1     0     0
SMALL
bcc


@<TRIPOS>ATOM
      1 C2           0.0000     0.0000     0.0000 ca         1 JNI       0.746900
      2 C4           2.0060     0.0000     1.1360 ca         1 JNI       0.528200
      3 C5           1.3210     0.0000     2.3360 ca         1 JNI      -0.501600
      4 C6          -0.0750     0.0100     2.3040 ca         1 JNI       0.594200
      5 C11         -2.8150    -2.0730     4.8660 ca         1 JNI      -0.086500
      6 C12         -3.1980    -3.3920     5.0140 ca         1 JNI      -0.105500
      7 C15         -2.9130    -2.3110     2.4850 ca         1 JNI      -0.086500
      8 C16         -0.1480     0.1050     4.7110 ca         1 JNI       0.009600
      9 C17          0.3950    -1.0280     5.3000 ca         1 JNI      -0.091000
     10 C18          1.0500    -0.9310     6.5120 ca         1 JNI      -0.099000
     11 C19          1.1680     0.2940     7.1470 ca         1 JNI      -0.090000
     12 C21         -0.0280     1.3450     5.3510 cp         1 JNI      -0.027000
     13 C23         -0.2270     2.9330     3.4390 ca         1 JNI      -0.094000
     14 C24         -0.7630     4.0670     2.8600 ca         1 JNI      -0.089000
     15 C27         -1.5230     3.3350     5.4330 ca         1 JNI      -0.092000
     16 C31         -4.8040     6.8100     6.9340 ca         1 JNI       0.744900
     17 C33         -3.4340     4.9610     6.8830 ca         1 JNI       0.453200
     18 C35         -6.1550     6.2310     9.4100 c3         1 JNI       0.180800
     19 C36         -7.1330     7.0720    10.2350 c3         1 JNI       0.141800
     20 C38         -8.1490     7.8900     8.1960 c3         1 JNI       0.141800
     21 C39         -7.1720     7.0500     7.3710 c3         1 JNI       0.180800
     22 N1          -0.6750     0.0010    -1.2080 nv         1 JNI      -0.507500
     23 N3           1.3250     0.0000     0.0000 nb         1 JNI      -0.748000
     24 N7          -0.6940     0.0050     1.1280 nb         1 JNI      -0.768000
     25 N8          -0.8050     0.0100     3.4830 nh         1 JNI      -0.292700
     26 C9          -2.2660    -0.0900     3.4410 c3         1 JNI       0.215100
     27 C10         -2.6760    -1.5310     3.6020 ca         1 JNI      -0.123300
     28 C13         -3.4400    -4.1710     3.8980 ca         1 JNI      -0.097000
     29 C14         -3.3010    -3.6290     2.6340 ca         1 JNI      -0.105500
     30 C20          0.6340     1.4290     6.5730 ca         1 JNI      -0.091000
     31 C22         -0.6050     2.5620     4.7300 cp         1 JNI      -0.035000
     32 C25         -1.6710     4.8420     3.5560 ca         1 JNI      -0.098000
     33 C26         -2.0510     4.4820     4.8480 cp         1 JNI      -0.023000
     34 C28         -3.0330     5.3110     5.5910 cp         1 JNI      -0.292600
     35 C29         -3.5730     6.4660     5.0190 ca         1 JNI       0.453200
     36 N30         -4.4430     7.1780     5.7130 nb         1 JNI      -0.639000
     37 N32         -4.3100     5.7250     7.5110 nb         1 JNI      -0.639000
     38 N34         -5.9160     6.8890     8.1180 nh         1 JNI      -0.522300
     39 N37         -8.3890     7.2320     9.4880 n7         1 JNI      -0.584200
     40 H1           3.0890    -0.0040     1.1250 h4         1 JNI      -0.023900
     41 H2           1.8540     0.0020     3.2780 ha         1 JNI       0.140000
     42 H3          -2.6280    -1.4620     5.7410 ha         1 JNI       0.112500
     43 H4          -3.3070    -3.8160     6.0050 ha         1 JNI       0.102500
     44 H5          -2.8040    -1.8860     1.4950 ha         1 JNI       0.112500
     45 H6           0.3060    -1.9900     4.8090 ha         1 JNI       0.121000
     46 H7           1.4720    -1.8180     6.9690 ha         1 JNI       0.107000
     47 H8           1.6830     0.3610     8.0980 ha         1 JNI       0.106000
     48 H10         -0.4690     4.3510     1.8570 ha         1 JNI       0.108000
     49 H11         -1.8170     3.0530     6.4360 ha         1 JNI       0.116000
     50 H12         -3.0330     4.0750     7.3610 h4         1 JNI      -0.006900
     51 H13         -6.5790     5.2490     9.2410 h1         1 JNI       0.018450
     52 H14         -5.2180     6.1390     9.9460 h1         1 JNI       0.018450
     53 H15         -6.6990     8.0470    10.4240 h1         1 JNI       0.010700
     54 H16         -7.3340     6.5720    11.1750 h1         1 JNI       0.010700
     55 H17         -7.7250     8.8730     8.3660 h1         1 JNI       0.010700
     56 H18         -9.0860     7.9830     7.6600 h1         1 JNI       0.010700
     57 H19         -7.6050     6.0750     7.1830 h1         1 JNI       0.018450
     58 H20         -6.9700     7.5500     6.4320 h1         1 JNI       0.018450
     59 H21         -1.6470     0.2410    -1.2380 hn         1 JNI       0.273800
     60 H22         -0.1880    -0.2200    -2.0540 hn         1 JNI       0.273800
     61 H23         -2.6920     0.4990     4.2450 h1         1 JNI       0.041700
     62 H24         -2.6260     0.2840     2.4900 h1         1 JNI       0.041700
     63 H25         -3.7410    -5.2050     4.0140 ha         1 JNI       0.102000
     64 H26         -3.4890    -4.2410     1.7600 ha         1 JNI       0.102500
     65 H27          0.7300     2.3850     7.0730 ha         1 JNI       0.112000
     66 H28         -2.0840     5.7320     3.0980 ha         1 JNI       0.110000
     67 H29         -3.2850     6.7720     4.0210 h4         1 JNI      -0.006900
     68 H30         -9.0310     7.7790    10.0270 hn         1 JNI       0.251800
     69 H9           0.4840     2.3300     2.8890 ha         1 JNI       0.126000
@<TRIPOS>BOND
     1     1    22 1   
     2     1    23 ar  
     3     1    24 ar  
     4     2     3 ar  
     5     2    23 ar  
     6     2    40 1   
     7     3     4 ar  
     8     3    41 1   
     9     4    24 ar  
    10     4    25 1   
    11     5     6 ar  
    12     5    27 ar  
    13     5    42 1   
    14     6    28 ar  
    15     6    43 1   
    16     7    27 ar  
    17     7    29 ar  
    18     7    44 1   
    19     8     9 ar  
    20     8    12 ar  
    21     8    25 1   
    22     9    10 ar  
    23     9    45 1   
    24    10    11 ar  
    25    10    46 1   
    26    11    30 ar  
    27    11    47 1   
    28    12    30 ar  
    29    12    31 1   
    30    13    14 ar  
    31    13    31 ar  
    32    13    69 1   
    33    14    32 ar  
    34    14    48 1   
    35    15    31 ar  
    36    15    33 ar  
    37    15    49 1   
    38    16    36 ar  
    39    16    37 ar  
    40    16    38 1   
    41    17    34 ar  
    42    17    37 ar  
    43    17    50 1   
    44    18    19 1   
    45    18    38 1   
    46    18    51 1   
    47    18    52 1   
    48    19    39 1   
    49    19    53 1   
    50    19    54 1   
    51    20    21 1   
    52    20    39 1   
    53    20    55 1   
    54    20    56 1   
    55    21    38 1   
    56    21    57 1   
    57    21    58 1   
    58    22    59 1   
    59    22    60 1   
    60    25    26 1   
    61    26    27 1   
    62    26    61 1   
    63    26    62 1   
    64    28    29 ar  
    65    28    63 1   
    66    29    64 1   
    67    30    65 1   
    68    32    33 ar  
    69    32    66 1   
    70    33    34 1   
    71    34    35 ar  
    72    35    36 ar  
    73    35    67 1   
    74    39    68 1   
@<TRIPOS>SUBSTRUCTURE
     1 JNI         1 TEMP              0 ****  ****    0 ROOT
