@<TRIPOS>MOLECULE
JNJ
   63    65     1     0     0
SMALL
bcc


@<TRIPOS>ATOM
      1 C1          0.0410    0.3060   -0.1490 c2        1 JNJ     -0.261000
      2 C2          1.4940    0.2660   -0.1470 ca        1 JNJ     -0.008000
      3 C3          2.4860    0.1550    0.8270 ca        1 JNJ     -0.085000
      4 C7          1.8410    0.3940   -1.5410 ca        1 JNJ     -0.071000
      5 C8          8.3230    0.3450   -1.8090 cv        1 JNJ     -0.119000
      6 C9          7.8750    1.3690   -1.0850 c2        1 JNJ     -0.017000
      7 C10         6.4230    1.3190   -0.8180 c2        1 JNJ      0.095000
      8 C11         5.6100    0.3140   -1.2740 c2        1 JNJ     -0.080000
      9 C12         6.0860   -0.8410   -2.1070 c3        1 JNJ     -0.074000
     10 C13         7.5210   -0.7730   -2.3640 cv        1 JNJ     -0.065000
     11 C14        10.2660    0.5340   -3.4250 c2        1 JNJ     -0.025000
     12 C15        11.9510    2.2640   -2.5530 c1        1 JNJ      0.262000
     13 C16         8.6070   -1.3440   -2.9540 cv        1 JNJ     -0.121000
     14 C19        11.2820   -1.6940   -5.5200 c1        1 JNJ     -0.036000
     15 C20        -0.7900    0.2050    1.0210 c2        1 JNJ      0.359000
     16 C21        -0.9490   -0.6660   -5.2930 c2        1 JNJ     -0.299000
     17 C22        -0.1430   -0.7760   -4.1880 c1        1 JNJ     -0.074000
     18 C24        -0.1350    1.8140   -4.2200 c2        1 JNJ     -0.125000
     19 C27        -1.6650   -1.6460   -6.1470 c2        1 JNJ      0.143000
     20 N1         -0.4160    0.4460   -1.4440 n2        1 JNJ      0.034000
     21 N2          0.6150    0.5150   -2.2510 na        1 JNJ     -0.011000
     22 C4          3.8080    0.1740    0.4190 ca        1 JNJ     -0.071000
     23 C5          4.1810    0.2950   -0.9410 ca        1 JNJ     -0.068000
     24 C6          3.1990    0.4050   -1.9420 ca        1 JNJ      0.140000
     25 F1          3.5290    0.5260   -3.2460 f         1 JNJ     -0.086000
     26 N3          9.5360   -0.2600   -2.4110 n4        1 JNJ      0.076000
     27 N4         11.1630    1.4520   -2.9190 n2        1 JNJ     -0.354000
     28 N5         10.8480   -2.9770   -5.4700 n3        1 JNJ     -0.189000
     29 C18         9.8220   -3.3210   -4.6790 c1        1 JNJ     -0.036000
     30 O1         -0.4700    0.1100    2.1970 o         1 JNJ     -0.178000
     31 C23         0.4640    0.5200   -3.7210 c3        1 JNJ      0.007000
     32 C25        -0.9700    1.8460   -5.2810 c2        1 JNJ     -0.110000
     33 C26        -1.3690    0.5870   -5.8380 c2        1 JNJ      0.113000
     34 O2         -2.2230    0.3690   -6.8760 os        1 JNJ      0.027000
     35 N7         -2.4020   -0.9430   -7.0790 n2        1 JNJ     -0.116000
     36 H3          2.2140    0.0630    1.8920 ha        1 JNJ      0.180000
     37 HN61       -2.5670    1.0750    0.3080 hn        1 JNJ      0.268667
     38 HN62       -2.7920    0.1100    1.6580 hn        1 JNJ      0.268667
     39 H9          8.4590    2.2110   -0.6820 ha        1 JNJ      0.201000
     40 H12         5.8290   -1.8040   -1.5780 hc        1 JNJ      0.149500
     41 H13         5.5160   -0.8410   -3.0860 hc        1 JNJ      0.149500
     42 H15         8.9920   -2.1850   -3.6170 hx        1 JNJ      0.315000
     43 H16        10.1870   -0.6200   -1.7070 hn        1 JNJ      0.260000
     44 H191       13.2630   -1.7320   -4.1490 ha        1 JNJ      0.004750
     45 H192       12.7770   -1.5010   -3.7340 ha        1 JNJ      0.004750
     46 H193       12.1200   -1.5200   -6.2310 ha        1 JNJ      0.085500
     47 H22         1.5250    0.4810   -4.1520 h1        1 JNJ      0.186000
     48 H24         0.1910    2.7470   -3.7310 ha        1 JNJ      0.162000
     49 H4          4.6100    0.1050    1.1740 ha        1 JNJ      0.168000
     50 H171       10.6310    0.8670   -5.5100 ha        1 JNJ      0.164500
     51 H172        9.2840   -0.3710   -5.1250 ha        1 JNJ      0.164500
     52 H181        4.3960   -0.8970   -5.1400 ha        1 JNJ      0.004750
     53 H182        4.8060   -0.3690   -5.2450 ha        1 JNJ      0.004750
     54 H183        9.5320   -4.3920   -4.7120 ha        1 JNJ      0.085500
     55 H25        -1.3570    2.7810   -5.7190 ha        1 JNJ      0.188000
     56 HN81       -2.0650   -3.5970   -6.6230 hn        1 JNJ      0.259500
     57 HN82       -0.9970   -3.3520   -5.2960 hn        1 JNJ      0.259500
     58 N6         -2.2890    0.2020    0.7670 n4        1 JNJ     -0.138000
     59 C17        10.0560    0.3170   -4.7490 c2        1 JNJ     -0.028000
     60 N8         -1.5870   -2.9880   -6.0040 nh        1 JNJ     -0.328000
     61 H51        11.3000   -3.6830   -6.0380 hn        1 JNJ      0.181000
     62 H63        -2.5350   -0.5830    0.1550 hn        1 JNJ      0.268667
     63 F2          5.9490    2.3450   -0.0760 f         1 JNJ     -0.069000
@<TRIPOS>BOND
     1    1    2 1
     2    1   15 1
     3    1   20 1
     4    2    3 1
     5    2    4 1
     6    3   22 1
     7    3   36 1
     8    4   21 1
     9    4   24 1
    10    5    6 1
    11    5   10 1
    12    5   26 1
    13    6    7 1
    14    6   39 1
    15    7    8 1
    16    7   63 1
    17    8    9 1
    18    8   23 1
    19    9   10 1
    20    9   40 1
    21    9   41 1
    22   10   13 1
    23   11   26 1
    24   11   27 1
    25   11   59 1
    26   12   27 1
    27   13   26 1
    28   13   42 1
    29   14   28 1
    30   14   46 1
    31   15   30 1
    32   15   58 1
    33   16   17 1
    34   16   19 1
    35   16   33 1
    36   17   31 1
    37   18   31 1
    38   18   32 1
    39   18   48 1
    40   19   35 1
    41   19   60 1
    42   20   21 1
    43   21   31 1
    44   22   23 1
    45   22   49 1
    46   23   24 1
    47   24   25 1
    48   26   43 1
    49   28   29 1
    50   28   61 1
    51   29   54 1
    52   31   47 1
    53   32   33 1
    54   32   55 1
    55   33   34 1
    56   34   35 1
    57   37   58 1
    58   38   58 1
    59   44   45 1
    60   50   59 1
    61   51   59 1
    62   52   53 1
    63   56   60 1
    64   57   60 1
    65   58   62 1
@<TRIPOS>SUBSTRUCTURE
     1 JNJ         1 TEMP              0 ****  ****    0 ROOT
