@<TRIPOS>MOLECULE
molecule
   56    59     1     0     0
SMALL
bcc


@<TRIPOS>ATOM
      1 C1           0.0000     0.0000     0.0000 cp         1 JNK       0.032000
      2 C2          -0.7610     0.0070    -1.2740 cp         1 JNK       0.019000
      3 C3           1.3940     0.0000     0.0000 ca         1 JNK      -0.298300
      4 C4          -0.6630    -0.0130     1.2320 ca         1 JNK      -0.294300
      5 C5          -1.9190     0.7720    -1.4130 ca         1 JNK      -0.285300
      6 C6          -0.3350    -0.7550    -2.3690 ca         1 JNK      -0.279300
      7 C7           2.0660     0.0000     1.2170 ca         1 JNK       0.694200
      8 C8           0.0770    -0.0180     2.3950 ca         1 JNK       0.465200
      9 C9          -2.5990     0.7500    -2.6230 ca         1 JNK       0.558200
     10 C10         -1.0690    -0.7220    -3.5360 ca         1 JNK       0.456200
     11 N11          3.4570     0.0060     1.2340 nu         1 JNK      -0.777300
     12 N12          1.3970    -0.0120     2.3590 nb         1 JNK      -0.749000
     13 N13         -3.7570     1.5090    -2.7770 ns         1 JNK      -0.555400
     14 N14         -2.1620     0.0100    -3.6310 nb         1 JNK      -0.681000
     15 C15          4.1410     0.1310     2.4490 ca         1 JNK       0.146600
     16 C16         -4.4890     1.4030    -3.9040 c          1 JNK       0.648100
     17 C17          5.3220    -0.5680     2.6570 ca         1 JNK      -0.121000
     18 C18          3.6420     0.9600     3.4450 ca         1 JNK      -0.121000
     19 C19         -5.8070     2.1250    -4.0190 c3         1 JNK      -0.147700
     20 O20         -4.0870     0.7240    -4.8250 o          1 JNK      -0.527100
     21 C21          5.9960    -0.4440     3.8560 ca         1 JNK      -0.150000
     22 C22          4.3160     1.0770     4.6460 ca         1 JNK      -0.150000
     23 C23         -6.4280     1.8370    -5.3870 c3         1 JNK      -0.066900
     24 C24         -6.7520     1.6410    -2.9170 c3         1 JNK      -0.066900
     25 C25          5.4920     0.3780     4.8510 ca         1 JNK       0.111900
     26 C26         -7.7660     2.5720    -5.5040 c3         1 JNK      -0.091900
     27 C27         -8.0890     2.3760    -3.0350 c3         1 JNK      -0.091900
     28 C28         -8.7110     2.0880    -4.4020 c3         1 JNK       0.129100
     29 O29         -9.9600     2.7740    -4.5110 os         1 JNK      -0.403600
     30 C30        -10.9640     1.8830    -4.0220 c3         1 JNK       0.115700
     31 F31          6.1530     0.4980     6.0240 f          1 JNK      -0.144900
     32 H3           1.9360    -0.1920    -0.9180 ha         1 JNK       0.142000
     33 H4          -1.7460    -0.0180     1.2720 ha         1 JNK       0.143000
     34 H5          -2.1720     1.5120    -0.6630 ha         1 JNK       0.140000
     35 H6           0.5620    -1.3590    -2.3010 ha         1 JNK       0.141000
     36 H8          -0.4310    -0.0280     3.3510 h4         1 JNK       0.027100
     37 H10         -0.7460    -1.3110    -4.3860 h4         1 JNK       0.031100
     38 H11          3.9690    -0.0540     0.3760 hn         1 JNK       0.456800
     39 H13         -4.0270     2.1590    -2.0660 hn         1 JNK       0.329500
     40 H17          5.7150    -1.2110     1.8780 ha         1 JNK       0.146500
     41 H18          2.7210     1.5070     3.2840 ha         1 JNK       0.146500
     42 H19         -5.6490     3.1920    -3.9130 hc         1 JNK       0.067700
     43 H21          6.9170    -0.9900     4.0190 ha         1 JNK       0.145500
     44 H22          3.9260     1.7220     5.4240 ha         1 JNK       0.145500
     45 H231        -6.5920     0.7720    -5.4910 hc         1 JNK       0.054200
     46 H232        -5.7590     2.1820    -6.1660 hc         1 JNK       0.054200
     47 H241        -6.3120     1.8480    -1.9490 hc         1 JNK       0.054200
     48 H242        -6.9150     0.5760    -3.0250 hc         1 JNK       0.054200
     49 H261        -8.2060     2.3660    -6.4720 hc         1 JNK       0.053450
     50 H262        -7.6020     3.6370    -5.3960 hc         1 JNK       0.053450
     51 H271        -8.7580     2.0310    -2.2560 hc         1 JNK       0.053450
     52 H272        -7.9240     3.4410    -2.9310 hc         1 JNK       0.053450
     53 H28         -8.8690     1.0220    -4.5080 h1         1 JNK       0.042700
     54 H301       -11.9410     2.3360    -4.1470 h1         1 JNK       0.031033
     55 H302       -10.9240     0.9530    -4.5770 h1         1 JNK       0.031033
     56 H303       -10.7900     1.6840    -2.9720 h1         1 JNK       0.031033
@<TRIPOS>BOND
     1     1     2 1
     2     1     3 ar
     3     1     4 ar
     4     2     5 ar
     5     2     6 ar
     6     3     7 ar
     7     3    32 1
     8     4     8 ar
     9     4    33 1
    10     5     9 ar
    11     5    34 1
    12     6    10 ar
    13     6    35 1
    14     7    11 1
    15     7    12 ar
    16     8    12 ar
    17     8    36 1
    18     9    13 1
    19     9    14 ar
    20    10    14 ar
    21    10    37 1
    22    11    15 1
    23    11    38 1
    24    13    16 1
    25    13    39 1
    26    15    17 ar
    27    15    18 ar
    28    16    19 1
    29    16    20 2
    30    17    21 ar
    31    17    40 1
    32    18    22 ar
    33    18    41 1
    34    19    23 1
    35    19    24 1
    36    19    42 1
    37    21    25 ar
    38    21    43 1
    39    22    25 ar
    40    22    44 1
    41    23    26 1
    42    23    45 1
    43    23    46 1
    44    24    27 1
    45    24    47 1
    46    24    48 1
    47    25    31 1
    48    26    28 1
    49    26    49 1
    50    26    50 1
    51    27    28 1
    52    27    51 1
    53    27    52 1
    54    28    29 1
    55    28    53 1
    56    29    30 1
    57    30    54 1
    58    30    55 1
    59    30    56 1
@<TRIPOS>SUBSTRUCTURE
     1 JNK         1 TEMP              0 ****  ****    0 ROOT
