@<TRIPOS>MOLECULE
molecule
   28    28     1     0     0
SMALL
bcc


@<TRIPOS>ATOM
      1 C10          0.0000     0.0000     0.0000 c          1 JNM       0.583700
      2 C13          2.4890     0.0000     0.0000 ca         1 JNM       0.202100
      3 C01          6.6810     1.4680    -1.2040 c3         1 JNM      -0.092100
      4 C02          5.3600     1.4550    -0.4300 c3         1 JNM      -0.079400
      5 C03          4.9920     0.0130    -0.0750 c3         1 JNM      -0.023100
      6 C04          3.6910     0.0000     0.6860 ca         1 JNM      -0.155300
      7 C05          3.7040    -0.0110     2.0700 ca         1 JNM      -0.047000
      8 C06          2.5190    -0.0230     2.7830 ca         1 JNM      -0.246000
      9 C07          1.3040    -0.0240     2.1190 ca         1 JNM       0.180100
     10 O08          0.1440    -0.0360     2.8220 oh         1 JNM      -0.491100
     11 C09          1.2780    -0.0060     0.7140 ca         1 JNM      -0.238600
     12 O11         -0.0180     0.0110    -1.2140 o          1 JNM      -0.530100
     13 C12         -1.2940    -0.0140     0.7710 c3         1 JNM      -0.178100
     14 O14          2.4790     0.0120    -1.3570 oh         1 JNM      -0.497100
     15 H011         6.9240     2.4850    -1.4850 hc         1 JNM       0.033033
     16 H012         7.4690     1.0680    -0.5780 hc         1 JNM       0.033033
     17 H013         6.5830     0.8600    -2.0950 hc         1 JNM       0.033033
     18 H022         4.5780     1.8880    -1.0430 hc         1 JNM       0.049200
     19 H021         5.4680     2.0350     0.4790 hc         1 JNM       0.049200
     20 H031         5.7730    -0.4190     0.5380 hc         1 JNM       0.047700
     21 H032         4.8840    -0.5670    -0.9840 hc         1 JNM       0.047700
     22 H051         4.6490    -0.0110     2.5990 ha         1 JNM       0.139000
     23 H061         2.5420    -0.0320     3.8660 ha         1 JNM       0.134000
     24 H081         0.3310    -0.1920     3.7330 ho         1 JNM       0.423000
     25 H123        -1.3430    -0.9100     1.3780 hc         1 JNM       0.063367
     26 H121        -1.3420     0.8590     1.4110 hc         1 JNM       0.063367
     27 H122        -2.1270    -0.0000     0.0790 hc         1 JNM       0.063367
     28 H141         2.3820    -0.8690    -1.6780 ho         1 JNM       0.434000
@<TRIPOS>BOND
     1     5     4 1
     2     5     6 1
     3     4     3 1
     4     7     6 ar
     5     7     8 ar
     6     6     2 ar
     7     8     9 ar
     8     2    14 1
     9     2    11 ar
    10     9    10 1
    11     9    11 ar
    12    11     1 1
    13     1    12 2
    14     1    13 1
    15     3    15 1
    16     3    16 1
    17     3    17 1
    18     4    18 1
    19     4    19 1
    20     5    20 1
    21     5    21 1
    22     7    22 1
    23     8    23 1
    24    10    24 1
    25    13    25 1
    26    13    26 1
    27    13    27 1
    28    14    28 1
@<TRIPOS>SUBSTRUCTURE
     1 JNM         1 TEMP              0 ****  ****    0 ROOT
