@<TRIPOS>MOLECULE
molecule
   50    53     1     0     0
SMALL
bcc


@<TRIPOS>ATOM
      1 C01          0.0000     0.0000     0.0000 c3         1 JNO       0.104300
      2 N02          1.4660     0.0000     0.0000 ns         1 JNO      -0.595900
      3 C03          2.1400     0.0000     1.1670 c          1 JNO       0.655100
      4 O04          1.5330    -0.0020     2.2170 o          1 JNO      -0.587100
      5 C05          3.6460     0.0010     1.1660 c3         1 JNO       0.089800
      6 N06          4.1360    -0.0000     2.5510 n3         1 JNO      -0.708600
      7 C07          5.5850     0.2390     2.5980 c3         1 JNO       0.163300
      8 C08          6.0340     0.3760     4.0530 c3         1 JNO      -0.090900
      9 C09          5.6850    -0.9060     4.8140 c3         1 JNO       0.246500
     10 C10          4.1780    -1.1580     4.7090 c3         1 JNO      -0.090900
     11 C11          3.7830    -1.2510     3.2340 c3         1 JNO       0.163300
     12 N12          6.0610    -0.7590     6.2220 nu         1 JNO      -0.890900
     13 C13          6.3360    -1.8790     6.9860 ca         1 JNO       0.957900
     14 N14          6.6740    -1.7260     8.2560 nb         1 JNO      -0.803000
     15 C15          6.9450    -2.7880     9.0190 ca         1 JNO       0.617100
     16 C16          6.8670    -4.0680     8.4510 ca         1 JNO      -0.471600
     17 C17          6.5110    -4.1770     7.1220 ca         1 JNO       0.509200
     18 N18          6.2510    -3.0780     6.4270 nb         1 JNO      -0.811000
     19 C19          7.3210    -2.6180    10.4320 cc         1 JNO      -0.299900
     20 N20          7.5000    -3.6180    11.3640 na         1 JNO       0.065700
     21 C21          7.3940    -4.9740    11.2890 cc         1 JNO      -0.090300
     22 C22          7.6270    -5.7440    12.3740 cd         1 JNO      -0.158000
     23 C23          7.9800    -5.1530    13.5960 cd         1 JNO      -0.125000
     24 C24          8.0880    -3.7980    13.6840 cc         1 JNO      -0.086000
     25 C25          7.8420    -3.0110    12.5420 cc         1 JNO      -0.009300
     26 N26          7.8740    -1.6970    12.3450 nd         1 JNO      -0.323600
     27 C27          7.5690    -1.4270    11.0810 cd         1 JNO       0.106600
     28 H01         -0.3610     0.8740     0.5290 h1         1 JNO       0.042033
     29 H01A        -0.3610     0.0210    -1.0210 h1         1 JNO       0.042033
     30 H01B        -0.3610    -0.8950     0.4920 h1         1 JNO       0.042033
     31 HN02         1.9660     0.0160    -0.8670 hn         1 JNO       0.309500
     32 H05          4.0070     0.8870     0.6570 h1         1 JNO       0.049200
     33 H05A         4.0080    -0.8830     0.6550 h1         1 JNO       0.049200
     34 H07          6.1020    -0.5950     2.1390 h1         1 JNO       0.041200
     35 H07A         5.8160     1.1520     2.0630 h1         1 JNO       0.041200
     36 H08          7.1060     0.5340     4.0860 hc         1 JNO       0.058950
     37 H08A         5.5250     1.2160     4.5100 hc         1 JNO       0.058950
     38 H09          6.2200    -1.7410     4.3770 h1         1 JNO       0.074700
     39 H10          3.9330    -2.0890     5.2070 hc         1 JNO       0.058950
     40 H10A         3.6430    -0.3400     5.1760 hc         1 JNO       0.058950
     41 H11          2.7150    -1.4130     3.1570 h1         1 JNO       0.041200
     42 H11A         4.3120    -2.0750     2.7710 h1         1 JNO       0.041200
     43 HN12         6.1430     0.1540     6.6250 hn         1 JNO       0.457800
     44 H16          7.0830    -4.9510     9.0420 ha         1 JNO       0.140000
     45 H17          6.4390    -5.1500     6.6520 h4         1 JNO       0.025100
     46 H21          7.1220    -5.4390    10.3490 h4         1 JNO       0.173000
     47 H22          7.5400    -6.8210    12.3010 ha         1 JNO       0.150000
     48 H23          8.1660    -5.7710    14.4660 ha         1 JNO       0.145000
     49 H24          8.3600    -3.3300    14.6220 ha         1 JNO       0.163000
     50 H27          7.5240    -0.4400    10.6370 h4         1 JNO       0.201000
@<TRIPOS>BOND
     1     1     2 1
     2     2     3 1
     3     3     4 2
     4     3     5 1
     5     5     6 1
     6     6     7 1
     7     6    11 1
     8     7     8 1
     9     8     9 1
    10     9    10 1
    11     9    12 1
    12    10    11 1
    13    12    13 1
    14    13    14 ar
    15    13    18 ar
    16    14    15 ar
    17    15    16 ar
    18    15    19 1
    19    16    17 ar
    20    17    18 ar
    21    19    20 1
    22    19    27 2
    23    20    21 1
    24    20    25 1
    25    21    22 2
    26    22    23 1
    27    23    24 2
    28    24    25 1
    29    25    26 2
    30    26    27 1
    31     1    28 1
    32     1    29 1
    33     1    30 1
    34     2    31 1
    35     5    32 1
    36     5    33 1
    37     7    34 1
    38     7    35 1
    39     8    36 1
    40     8    37 1
    41     9    38 1
    42    10    39 1
    43    10    40 1
    44    11    41 1
    45    11    42 1
    46    12    43 1
    47    16    44 1
    48    17    45 1
    49    21    46 1
    50    22    47 1
    51    23    48 1
    52    24    49 1
    53    27    50 1
@<TRIPOS>SUBSTRUCTURE
     1 JNO         1 TEMP              0 ****  ****    0 ROOT
