@<TRIPOS>MOLECULE
JNO
   50    53     1     0     0
SMALL
bcc


@<TRIPOS>ATOM
      1 C01          0.0000     0.0000     0.0000 c3         1 JNO       0.088300
      2 N02          1.4660     0.0000     0.0000 ns         1 JNO      -0.203900
      3 C03          2.1400     0.0000     1.1670 c          1 JNO       0.565100
      4 O04          1.5330    -0.0020     2.2170 o          1 JNO      -0.625100
      5 C05          3.6460     0.0010     1.1660 c3         1 JNO       0.085800
      6 N06          4.1360    -0.0000     2.5510 n3         1 JNO      -0.508600
      7 C07          5.5850     0.2390     2.5980 c3         1 JNO       0.146800
      8 C08          6.0340     0.3760     4.0530 c3         1 JNO      -0.035900
      9 C09          5.6850    -0.9060     4.8140 c3         1 JNO       0.127500
     10 C10          4.1780    -1.1580     4.7090 c3         1 JNO      -0.035900
     11 C11          3.7830    -1.2510     3.2340 c3         1 JNO       0.146800
     12 N12          6.0610    -0.7590     6.2220 nu         1 JNO      -0.471900
     13 C13          6.3360    -1.8790     6.9860 ca         1 JNO       0.737900
     14 N14          6.6740    -1.7260     8.2560 nb         1 JNO      -0.697000
     15 C15          6.9450    -2.7880     9.0190 ca         1 JNO       0.603100
     16 C16          6.8670    -4.0680     8.4510 ca         1 JNO      -0.478600
     17 C17          6.5110    -4.1770     7.1220 ca         1 JNO       0.510200
     18 N18          6.2510    -3.0780     6.4270 nb         1 JNO      -0.718000
     19 C19          7.3210    -2.6180    10.4320 cc         1 JNO      -0.523900
     20 N20          7.5000    -3.6180    11.3640 na         1 JNO       0.660700
     21 C21          7.3940    -4.9740    11.2890 cc         1 JNO      -0.312300
     22 C22          7.6270    -5.7440    12.3740 cd         1 JNO      -0.076000
     23 C23          7.9800    -5.1530    13.5960 cd         1 JNO      -0.135000
     24 C24          8.0880    -3.7980    13.6840 cc         1 JNO      -0.019000
     25 C25          7.8420    -3.0110    12.5420 cc         1 JNO      -0.245300
     26 N26          7.8740    -1.6970    12.3450 nd         1 JNO      -0.257600
     27 C27          7.5690    -1.4270    11.0810 cd         1 JNO       0.119600
     28 H01         -0.3610     0.8740     0.5290 h1         1 JNO       0.009367
     29 H01A        -0.3610     0.0210    -1.0210 h1         1 JNO       0.009367
     30 H01B        -0.3610    -0.8950     0.4920 h1         1 JNO       0.009367
     31 HN02         1.9660     0.0160    -0.8670 hn         1 JNO       0.168500
     32 H05          4.0070     0.8870     0.6570 h1         1 JNO       0.019200
     33 H05A         4.0080    -0.8830     0.6550 h1         1 JNO       0.019200
     34 H07          6.1020    -0.5950     2.1390 h1         1 JNO       0.016700
     35 H07A         5.8160     1.1520     2.0630 h1         1 JNO       0.016700
     36 H08          7.1060     0.5340     4.0860 hc         1 JNO       0.028450
     37 H08A         5.5250     1.2160     4.5100 hc         1 JNO       0.028450
     38 H09          6.2200    -1.7410     4.3770 h1         1 JNO       0.053700
     39 H10          3.9330    -2.0890     5.2070 hc         1 JNO       0.028450
     40 H10A         3.6430    -0.3400     5.1760 hc         1 JNO       0.028450
     41 H11          2.7150    -1.4130     3.1570 h1         1 JNO       0.016700
     42 H11A         4.3120    -2.0750     2.7710 h1         1 JNO       0.016700
     43 HN12         6.1430     0.1540     6.6250 hn         1 JNO       0.301800
     44 H16          7.0830    -4.9510     9.0420 ha         1 JNO       0.133000
     45 H17          6.4390    -5.1500     6.6520 h4         1 JNO      -0.022900
     46 H21          7.1220    -5.4390    10.3490 h4         1 JNO       0.161000
     47 H22          7.5400    -6.8210    12.3010 ha         1 JNO       0.116000
     48 H23          8.1660    -5.7710    14.4660 ha         1 JNO       0.117000
     49 H24          8.3600    -3.3300    14.6220 ha         1 JNO       0.125000
     50 H27          7.5240    -0.4400    10.6370 h4         1 JNO       0.153000
@<TRIPOS>BOND
     1     1     2 1   
     2     1    28 1   
     3     1    29 1   
     4     1    30 1   
     5     2     3 1   
     6     2    31 1   
     7     3     4 2   
     8     3     5 1   
     9     5     6 1   
    10     5    32 1   
    11     5    33 1   
    12     6     7 1   
    13     6    11 1   
    14     7     8 1   
    15     7    34 1   
    16     7    35 1   
    17     8     9 1   
    18     8    36 1   
    19     8    37 1   
    20     9    10 1   
    21     9    12 1   
    22     9    38 1   
    23    10    11 1   
    24    10    39 1   
    25    10    40 1   
    26    11    41 1   
    27    11    42 1   
    28    12    13 1   
    29    12    43 1   
    30    13    14 ar  
    31    13    18 ar  
    32    14    15 ar  
    33    15    16 ar  
    34    15    19 1   
    35    16    17 ar  
    36    16    44 1   
    37    17    18 ar  
    38    17    45 1   
    39    19    20 1   
    40    19    27 2   
    41    20    21 1   
    42    20    25 1   
    43    21    22 2   
    44    21    46 1   
    45    22    23 1   
    46    22    47 1   
    47    23    24 2   
    48    23    48 1   
    49    24    25 1   
    50    24    49 1   
    51    25    26 2   
    52    26    27 1   
    53    27    50 1   
@<TRIPOS>SUBSTRUCTURE
     1 JNO         1 TEMP              0 ****  ****    0 ROOT
