@<TRIPOS>MOLECULE
molecule
   26    27     1     0     0
SMALL
bcc


@<TRIPOS>ATOM
      1 C10          0.0000     0.0000     0.0000 ca         1 JNP       0.167100
      2 C13         -0.0230     0.0030     2.4000 ca         1 JNP       0.202100
      3 C01          0.1960    -1.9630     4.6280 c3         1 JNP      -0.100600
      4 C02         -0.0570    -0.4590     4.7480 c3         1 JNP       0.157800
      5 C03         -0.9460    -0.1860     5.9630 c3         1 JNP      -0.100600
      6 C04          1.2810     0.2760     4.9170 c3         1 JNP      -0.203400
      7 C05          2.1060    -0.0030     3.6730 c          1 JNP       0.584700
      8 O06          3.2980    -0.2190     3.7330 o          1 JNP      -0.522100
      9 C07          1.3830     0.0020     2.3910 ca         1 JNP      -0.272600
     10 C08          2.0820     0.0000     1.1800 ca         1 JNP      -0.023000
     11 C09          1.3930     0.0000     0.0000 ca         1 JNP      -0.203000
     12 O11         -0.6730    -0.0030    -1.1780 oh         1 JNP      -0.521100
     13 C12         -0.7060    -0.0010     1.1950 ca         1 JNP      -0.206000
     14 O14         -0.7080     0.0100     3.5680 os         1 JNP      -0.323900
     15 H013        -0.7200    -2.4620     4.3350 hc         1 JNP       0.051867
     16 H011         0.5280    -2.3510     5.5840 hc         1 JNP       0.051867
     17 H012         0.9600    -2.1420     3.8810 hc         1 JNP       0.051867
     18 H032        -1.1250     0.8790     6.0480 hc         1 JNP       0.051867
     19 H033        -0.4520    -0.5410     6.8590 hc         1 JNP       0.051867
     20 H031        -1.8910    -0.7030     5.8430 hc         1 JNP       0.051867
     21 H041         1.0970     1.3410     4.9910 hc         1 JNP       0.083700
     22 H042         1.7980    -0.1190     5.7830 hc         1 JNP       0.083700
     23 H081         3.1650     0.0000     1.1770 ha         1 JNP       0.155000
     24 H091         1.9320    -0.0010    -0.9400 ha         1 JNP       0.147000
     25 H111        -0.8670     0.8840    -1.4320 ho         1 JNP       0.427000
     26 H121        -1.7890    -0.0010     1.1850 ha         1 JNP       0.157000
@<TRIPOS>BOND
     1     8     7 2
     2    10    11 ar
     3    10     9 ar
     4    11     1 ar
     5     7     9 1
     6     7     6 1
     7     9     2 ar
     8     1    12 1
     9     1    13 ar
    10     6     4 1
    11     2    13 ar
    12     2    14 1
    13    14     4 1
    14     4     5 1
    15     4     3 1
    16     3    15 1
    17     3    16 1
    18     3    17 1
    19     5    18 1
    20     5    19 1
    21     5    20 1
    22     6    21 1
    23     6    22 1
    24    10    23 1
    25    11    24 1
    26    12    25 1
    27    13    26 1
@<TRIPOS>SUBSTRUCTURE
     1 JNP         1 TEMP              0 ****  ****    0 ROOT
