@<TRIPOS>MOLECULE
molecule
   31    33     1     0     0
SMALL
bcc


@<TRIPOS>ATOM
      1 C1           0.0000     0.0000     0.0000 ca         1 JNS      -0.102000
      2 C2           1.3840     0.0000     0.0000 ca         1 JNS      -0.188000
      3 C3          -0.6930     0.0000     1.1920 ca         1 JNS      -0.191500
      4 C4          -1.4250    -2.3750     2.0520 ca         1 JNS      -0.140000
      5 C5           2.0830     0.0000     1.1940 ca         1 JNS      -0.102000
      6 C6          -1.8450    -3.2040     1.0310 ca         1 JNS      -0.136000
      7 C7           0.0070     0.0000     2.4020 ca         1 JNS       0.100200
      8 C8          -2.3370    -1.5440     2.7010 ca         1 JNS      -0.001800
      9 C9          -3.6950    -1.5550     2.3070 ca         1 JNS      -0.068600
     10 C10          1.4050     0.0000     2.3940 ca         1 JNS      -0.191500
     11 C11         -3.1750    -3.2220     0.6370 ca         1 JNS       0.035100
     12 C12         -4.1050    -2.4000     1.2710 ca         1 JNS       0.066100
     13 C14         -0.7260     0.0020     3.6810 ce         1 JNS      -0.225200
     14 C15         -1.8910    -0.6620     3.7890 cf         1 JNS      -0.077200
     15 C16         -4.6690    -0.6840     2.9830 c          1 JNS       0.880200
     16 C17         -5.2180    -3.8530    -0.0040 c3         1 JNS       0.326200
     17 O19         -5.3340    -1.1310     4.0660 o          1 JNS      -0.809800
     18 O20         -4.8740     0.4380     2.5620 o          1 JNS      -0.809800
     19 O21         -3.8190    -3.9420    -0.3280 os         1 JNS      -0.343900
     20 O22         -5.3270    -2.6050     0.7040 os         1 JNS      -0.295900
     21 H1          -0.5400    -0.0000    -0.9390 ha         1 JNS       0.120500
     22 H2           1.9230    -0.0000    -0.9400 ha         1 JNS       0.114000
     23 H3          -1.7760     0.0000     1.1910 ha         1 JNS       0.147000
     24 H5           3.1670    -0.0000     1.1850 ha         1 JNS       0.120500
     25 H10          1.9530     0.0000     3.3280 ha         1 JNS       0.147000
     26 H14         -0.0530    -0.8110     3.4350 ha         1 JNS       0.071000
     27 H15         -2.4310    -0.2570     2.9410 ha         1 JNS       0.175000
     28 H171        -5.5120    -4.6780     0.6350 h2         1 JNS       0.056700
     29 H172        -5.8160    -3.8300    -0.9070 h2         1 JNS       0.056700
     30 H4          -0.3840    -2.3710     2.3510 ha         1 JNS       0.138000
     31 H6          -1.1290    -3.8460     0.5330 ha         1 JNS       0.128000
@<TRIPOS>BOND
     1     1     2 ar
     2     1     3 ar
     3     2     5 ar
     4     3     7 ar
     5     4     6 ar
     6     4     8 ar
     7     5    10 ar
     8     6    11 ar
     9     7    10 ar
    10     7    13 1
    11     8     9 ar
    12     8    14 1
    13     9    12 ar
    14     9    15 1
    15    11    12 ar
    16    11    19 1
    17    12    20 1
    18    13    14 2
    19    15    17 1
    20    15    18 1
    21    16    19 1
    22    16    20 1
    23     1    21 1
    24     2    22 1
    25     3    23 1
    26     5    24 1
    27     4    30 1
    28     6    31 1
    29    10    25 1
    30    13    26 1
    31    14    27 1
    32    16    28 1
    33    16    29 1
@<TRIPOS>SUBSTRUCTURE
     1 JNS         1 TEMP              0 ****  ****    0 ROOT
