@<TRIPOS>MOLECULE
JNS
   31    33     1     0     0
SMALL
bcc


@<TRIPOS>ATOM
      1 C1          0.6630    0.3390   -0.0820 ca        1 JNS     -0.137500
      2 C2          2.0280    0.4200    0.1970 ca        1 JNS     -0.152000
      3 C3         -0.2560    0.1680    0.9500 ca        1 JNS     -0.127500
      4 C4         -1.6530   -2.4790    1.6900 ca        1 JNS     -0.132000
      5 C5          2.4690    0.3310    1.5160 ca        1 JNS     -0.137500
      6 C6         -2.1690   -3.4210    0.7860 ca        1 JNS     -0.152000
      7 C7          0.1770    0.0760    2.2810 ca        1 JNS     -0.022800
      8 C8         -2.4740   -1.6580    2.4700 ca        1 JNS     -0.069800
      9 C9         -3.8930   -1.7330    2.3900 ca        1 JNS     -0.059600
     10 C10         1.5520    0.1650    2.5520 ca        1 JNS     -0.127500
     11 C11        -3.5450   -3.4890    0.7070 ca        1 JNS      0.040100
     12 C12        -4.3870   -2.6610    1.4920 ca        1 JNS      0.057100
     13 C14        -0.7610   -0.0440    3.3840 ce        1 JNS     -0.179200
     14 C15        -1.9000   -0.7490    3.4520 cf        1 JNS     -0.042200
     15 C16        -4.7870   -0.8390    3.2480 c         1 JNS      0.922200
     16 C17        -5.7010   -4.0060    0.2030 c3        1 JNS      0.318200
     17 O19        -4.7670   -1.0340    4.4950 o         1 JNS     -0.812300
     18 O20        -5.4630    0.0460    2.6630 o         1 JNS     -0.812300
     19 O21        -4.3240   -4.3250   -0.0940 os        1 JNS     -0.357900
     20 O22        -5.7200   -2.9710    1.2010 os        1 JNS     -0.309900
     21 H1          0.3090    0.4110   -1.1210 ha        1 JNS      0.119000
     22 H2          2.7510    0.5540   -0.6190 ha        1 JNS      0.115000
     23 H3         -1.3350    0.0940    0.7310 ha        1 JNS      0.141000
     24 H5          3.5430    0.3930    1.7420 ha        1 JNS      0.119000
     25 H10         1.9040    0.1010    3.5920 ha        1 JNS      0.141000
     26 H14        -0.4730    0.5570    4.2680 ha        1 JNS      0.117000
     27 H15        -2.5320   -0.6550    4.3660 ha        1 JNS      0.182000
     28 H171       -6.1950   -4.9190    0.6190 h2        1 JNS      0.050200
     29 H172       -6.1850   -3.6210   -0.7290 h2        1 JNS      0.050200
     30 H4         -0.5600   -2.3880    1.7860 ha        1 JNS      0.129000
     31 H6         -1.5170   -4.0600    0.1840 ha        1 JNS      0.131000
@<TRIPOS>BOND
     1    1    2 ar  
     2    1    3 ar  
     3    1   21 1   
     4    2    5 ar  
     5    2   22 1   
     6    3    7 ar  
     7    3   23 1   
     8    4    6 ar  
     9    4    8 ar  
    10    4   30 1   
    11    5   10 ar  
    12    5   24 1   
    13    6   11 ar  
    14    6   31 1   
    15    7   10 ar  
    16    7   13 1   
    17    8    9 ar  
    18    8   14 1   
    19    9   12 ar  
    20    9   15 1   
    21   10   25 1   
    22   11   12 ar  
    23   11   19 1   
    24   12   20 1   
    25   13   14 2   
    26   13   26 1   
    27   14   27 1   
    28   15   17 1   
    29   15   18 1   
    30   16   19 1   
    31   16   20 1   
    32   16   28 1   
    33   16   29 1   
@<TRIPOS>SUBSTRUCTURE
     1 JNS         1 TEMP              0 ****  ****    0 ROOT
