@<TRIPOS>MOLECULE
molecule
   20    20     1     0     0
SMALL
bcc


@<TRIPOS>ATOM
      1 C10          0.0000     0.0000     0.0000 ca         1 JNV       0.034400
      2 C01         -1.7430     1.6970     5.4180 c3         1 JNV      -0.194100
      3 C02         -1.0020     1.4210     4.1350 c          1 JNV       0.557100
      4 O03         -0.6100     2.3390     3.4550 o          1 JNV      -0.508100
      5 C04         -0.7510     0.0010     3.7000 c3         1 JNV      -0.137100
      6 C05          0.0020     0.0010     2.3950 ca         1 JNV      -0.063300
      7 C06          1.3840     0.0010     2.3950 ca         1 JNV      -0.106000
      8 C07          2.0760     0.0000     1.1990 ca         1 JNV      -0.110000
      9 C08          1.3860     0.0000     0.0000 ca         1 JNV       0.032400
     10 Cl09         2.2550    -0.0010    -1.5030 cl         1 JNV      -0.087400
     11 Cl11        -0.8680    -0.0080    -1.5030 cl         1 JNV      -0.087400
     12 C12         -0.6900     0.0000     1.1980 ca         1 JNV      -0.101000
     13 H011        -1.2030     1.2590     6.2490 hc         1 JNV       0.062033
     14 H012        -1.8240     2.7670     5.5650 hc         1 JNV       0.062033
     15 H013        -2.7340     1.2640     5.3630 hc         1 JNV       0.062033
     16 H042        -0.1660    -0.5100     4.4550 hc         1 JNV       0.073700
     17 H041        -1.6980    -0.5100     3.5710 hc         1 JNV       0.073700
     18 H061         1.9250     0.0010     3.3330 ha         1 JNV       0.139000
     19 H071         3.1590     0.0000     1.2000 ha         1 JNV       0.150000
     20 H121        -1.7730     0.0000     1.1990 ha         1 JNV       0.148000
@<TRIPOS>BOND
     1    10     9 1
     2     9     8 ar
     3     9     1 ar
     4     8     7 ar
     5    11     1 1
     6     1    12 ar
     7     7     6 ar
     8    12     6 ar
     9     6     5 1
    10     5     3 1
    11     3     4 2
    12     3     2 1
    13     2    13 1
    14     2    14 1
    15     2    15 1
    16     5    16 1
    17     5    17 1
    18     7    18 1
    19     8    19 1
    20    12    20 1
@<TRIPOS>SUBSTRUCTURE
     1 JNV         1 TEMP              0 ****  ****    0 ROOT
