@<TRIPOS>MOLECULE
molecule
   19    19     1     0     0
SMALL
bcc


@<TRIPOS>ATOM
      1 C01          0.0000     0.0000     0.0000 c3         1 JNY      -0.068900
      2 C02          1.5070     0.0000     0.0000 cc         1 JNY       0.085400
      3 C03          2.1730     0.0000     1.1820 cd         1 JNY      -0.235000
      4 C04          3.5680     0.0000     1.2000 cd         1 JNY      -0.040200
      5 C05          4.2590    -0.0000    -0.0090 cc         1 JNY      -0.063900
      6 C06          5.6900    -0.0000    -0.0320 cg         1 JNY       0.214500
      7 N07          6.8270     0.0140    -0.0350 n1         1 JNY      -0.326800
      8 C08          3.5180    -0.0000    -1.2200 c          1 JNY       0.695700
      9 O09          4.0980    -0.0050    -2.2920 o          1 JNY      -0.615500
     10 N10          2.1720    -0.0050    -1.1810 ns         1 JNY      -0.396100
     11 C11          4.3170     0.0010     2.5080 c3         1 JNY       0.665100
     12 F12          3.9750     1.1440     3.2400 f          1 JNY      -0.209967
     13 F13          3.9760    -1.1410     3.2410 f          1 JNY      -0.209967
     14 F14          5.6930     0.0010     2.2580 f          1 JNY      -0.209967
     15 H011        -0.3610     0.9940     0.2370 hc         1 JNY       0.066033
     16 H012        -0.3610    -0.2920    -0.9790 hc         1 JNY       0.066033
     17 H013        -0.3610    -0.7020     0.7420 hc         1 JNY       0.066033
     18 H031         1.6280     0.0960     2.1130 ha         1 JNY       0.167000
     19 H101         1.6610     0.0240    -2.0410 hn         1 JNY       0.348500
@<TRIPOS>BOND
     1     9     8 2
     2     8    10 1
     3     8     5 1
     4     7     6 3
     5     6     5 1
     6    10     2 1
     7     5     4 2
     8     2     1 1
     9     2     3 2
    10    13    11 1
    11     4     3 1
    12     4    11 1
    13    11    14 1
    14    11    12 1
    15     1    15 1
    16     1    16 1
    17     1    17 1
    18     3    18 1
    19    10    19 1
@<TRIPOS>SUBSTRUCTURE
     1 JNY         1 TEMP              0 ****  ****    0 ROOT
