@<TRIPOS>MOLECULE
JNY
   19    19     1     0     0
SMALL
bcc


@<TRIPOS>ATOM
      1 C01          0.0000     0.0000     0.0000 c3         1 JNY       0.054100
      2 C02          1.5070     0.0000     0.0000 cc         1 JNY      -0.101600
      3 C03          2.1730     0.0000     1.1820 cd         1 JNY      -0.191000
      4 C04          3.5680     0.0000     1.2000 cd         1 JNY      -0.083200
      5 C05          4.2590    -0.0000    -0.0090 cc         1 JNY       0.001100
      6 C06          5.6900    -0.0000    -0.0320 cg         1 JNY       0.194500
      7 N07          6.8270     0.0140    -0.0350 n1         1 JNY      -0.333800
      8 C08          3.5180    -0.0000    -1.2200 c          1 JNY       0.578700
      9 O09          4.0980    -0.0050    -2.2920 o          1 JNY      -0.663500
     10 N10          2.1720    -0.0050    -1.1810 ns         1 JNY       0.111900
     11 C11          4.3170     0.0010     2.5080 c3         1 JNY       0.635100
     12 F12          3.9750     1.1440     3.2400 f          1 JNY      -0.198967
     13 F13          3.9760    -1.1410     3.2410 f          1 JNY      -0.198967
     14 F14          5.6930     0.0010     2.2580 f          1 JNY      -0.198967
     15 H011        -0.3610     0.9940     0.2370 hc         1 JNY       0.024367
     16 H012        -0.3610    -0.2920    -0.9790 hc         1 JNY       0.024367
     17 H013        -0.3610    -0.7020     0.7420 hc         1 JNY       0.024367
     18 H031         1.6280     0.0960     2.1130 ha         1 JNY       0.142000
     19 H101         1.6610     0.0240    -2.0410 hn         1 JNY       0.180500
@<TRIPOS>BOND
     1     1     2 1   
     2     1    15 1   
     3     1    16 1   
     4     1    17 1   
     5     2     3 2   
     6     2    10 1   
     7     3     4 1   
     8     3    18 1   
     9     4     5 2   
    10     4    11 1   
    11     5     6 1   
    12     5     8 1   
    13     6     7 3   
    14     8     9 2   
    15     8    10 1   
    16    10    19 1   
    17    11    12 1   
    18    11    13 1   
    19    11    14 1   
@<TRIPOS>SUBSTRUCTURE
     1 JNY         1 TEMP              0 ****  ****    0 ROOT
