@<TRIPOS>MOLECULE
molecule
   17    18     1     0     0
SMALL
bcc


@<TRIPOS>ATOM
      1 C8           0.0000     0.0000     0.0000 ca         1 JNZ      -0.176000
      2 C7           1.3890     0.0000     0.0000 ca         1 JNZ      -0.083000
      3 C9          -0.6950     0.0000     1.1750 ca         1 JNZ      -0.047000
      4 C6           2.0890     0.0000     1.1730 ca         1 JNZ      -0.162000
      5 C10         -0.0020     0.0000     2.3890 ca         1 JNZ      -0.261900
      6 C5           1.4060     0.0000     2.3870 ca         1 JNZ      -0.018200
      7 C2          -0.4110     0.0000     3.7950 cc         1 JNZ       0.603800
      8 N3           0.6740     0.0000     4.5220 nd         1 JNZ      -0.521100
      9 N4           1.8040    -0.0000     3.6990 na         1 JNZ      -0.051100
     10 N1          -1.7240     0.0000     4.2710 nv         1 JNZ      -1.016800
     11 H8          -0.5370    -0.0000    -0.9410 ha         1 JNZ       0.130000
     12 H7           1.9240    -0.0000    -0.9420 ha         1 JNZ       0.131000
     13 H9          -1.7780     0.0000     1.1670 ha         1 JNZ       0.134000
     14 H6           3.1730    -0.0000     1.1600 ha         1 JNZ       0.129000
     15 HN4          2.7530    -0.0000     4.0170 hn         1 JNZ       0.332700
     16 HN1         -2.1880     0.8670     4.4590 hn         1 JNZ       0.438800
     17 HN1A        -2.1880    -0.8670     4.4590 hn         1 JNZ       0.438800
@<TRIPOS>BOND
     1     1     2 ar
     2     1     3 ar
     3     2     4 ar
     4     3     5 ar
     5     4     6 ar
     6     5     6 ar
     7     5     7 1
     8     6     9 1
     9     7     8 2
    10     7    10 1
    11     8     9 1
    12     1    11 1
    13     2    12 1
    14     3    13 1
    15     4    14 1
    16     9    15 1
    17    10    16 1
    18    10    17 1
@<TRIPOS>SUBSTRUCTURE
     1 JNZ         1 TEMP              0 ****  ****    0 ROOT
