@<TRIPOS>MOLECULE
JNZ
   17    18     1     0     0
SMALL
bcc


@<TRIPOS>ATOM
      1 C8           0.0000     0.0000     0.0000 ca         1 JNZ      -0.151000
      2 C7           1.3890     0.0000     0.0000 ca         1 JNZ      -0.056000
      3 C9          -0.6950     0.0000     1.1750 ca         1 JNZ      -0.010000
      4 C6           2.0890     0.0000     1.1730 ca         1 JNZ      -0.123000
      5 C10         -0.0020     0.0000     2.3890 ca         1 JNZ      -0.267900
      6 C5           1.4060     0.0000     2.3870 ca         1 JNZ      -0.183200
      7 C2          -0.4110     0.0000     3.7950 cc         1 JNZ       0.487800
      8 N3           0.6740     0.0000     4.5220 nd         1 JNZ      -0.648100
      9 N4           1.8040    -0.0000     3.6990 na         1 JNZ       0.418900
     10 N1          -1.7240     0.0000     4.2710 nv         1 JNZ      -0.573800
     11 H8          -0.5370    -0.0000    -0.9410 ha         1 JNZ       0.105000
     12 H7           1.9240    -0.0000    -0.9420 ha         1 JNZ       0.100000
     13 H9          -1.7780     0.0000     1.1670 ha         1 JNZ       0.102000
     14 H6           3.1730    -0.0000     1.1600 ha         1 JNZ       0.103000
     15 HN4          2.7530    -0.0000     4.0170 hn         1 JNZ       0.151700
     16 HN1         -2.1880     0.8670     4.4590 hn         1 JNZ       0.272800
     17 HN1A        -2.1880    -0.8670     4.4590 hn         1 JNZ       0.272800
@<TRIPOS>BOND
     1     1     2 ar  
     2     1     3 ar  
     3     1    11 1   
     4     2     4 ar  
     5     2    12 1   
     6     3     5 ar  
     7     3    13 1   
     8     4     6 ar  
     9     4    14 1   
    10     5     6 ar  
    11     5     7 1   
    12     6     9 1   
    13     7     8 2   
    14     7    10 1   
    15     8     9 1   
    16     9    15 1   
    17    10    16 1   
    18    10    17 1   
@<TRIPOS>SUBSTRUCTURE
     1 JNZ         1 TEMP              0 ****  ****    0 ROOT
