@<TRIPOS>MOLECULE
JO1
   26    27     1     0     0
SMALL
bcc


@<TRIPOS>ATOM
      1 C10          0.0000     0.0000     0.0000 c3         1 JO1       0.153300
      2 C13          3.6450     0.0000     0.8110 cc         1 JO1      -0.132000
      3 C01         -4.2100    -2.5440    -2.2390 c3         1 JO1      -0.016400
      4 C03         -2.1280    -3.0050    -0.9070 cc         1 JO1      -0.397900
      5 C04         -1.5330    -4.1440    -0.3940 cd         1 JO1      -0.265300
      6 C05         -2.3700    -5.2000    -0.7690 cd         1 JO1       0.333200
      7 C07         -1.6370    -1.6230    -0.7900 c          1 JO1       0.641700
      8 C11          1.3590    -0.0030     0.6510 cd         1 JO1      -0.028400
      9 C12          2.5230     0.0000     0.0000 cc         1 JO1      -0.105000
     10 C14          3.3920    -0.0090     2.1210 cd         1 JO1       0.017900
     11 N02         -3.2610    -3.4200    -1.5450 na         1 JO1       0.665400
     12 N06         -3.3700    -4.6970    -1.4460 nc         1 JO1      -0.648800
     13 N09         -0.4410    -1.3800    -0.2160 ns         1 JO1      -0.184900
     14 O08         -2.3080    -0.7010    -1.2110 o          1 JO1      -0.674100
     15 S15          1.6530    -0.0100     2.3850 ss         1 JO1      -0.262800
     16 H102        -0.7070     0.5080     0.6440 h1         1 JO1       0.034200
     17 H101         0.0570     0.5150    -0.9520 h1         1 JO1       0.034200
     18 H131         4.6520     0.0020     0.4120 ha         1 JO1       0.123000
     19 H012        -3.6930    -2.0000    -3.0210 h1         1 JO1       0.037367
     20 H011        -4.6360    -1.8420    -1.5320 h1         1 JO1       0.037367
     21 H013        -5.0000    -3.1410    -2.6760 h1         1 JO1       0.037367
     22 H041        -0.6150    -4.2050     0.1760 ha         1 JO1       0.133000
     23 H051        -2.2170    -6.2470    -0.5390 h4         1 JO1       0.007100
     24 H121         2.5860     0.0060    -1.0810 ha         1 JO1       0.124000
     25 H141         4.1430    -0.0110     2.9020 h4         1 JO1       0.150000
     26 H091         0.1480    -2.1420     0.0560 hn         1 JO1       0.186500
@<TRIPOS>BOND
     1     1     8 1   
     2     1    13 1   
     3     1    16 1   
     4     1    17 1   
     5     2     9 1   
     6     2    10 2   
     7     2    18 1   
     8     3    11 1   
     9     3    19 1   
    10     3    20 1   
    11     3    21 1   
    12     4     5 2   
    13     4     7 1   
    14     4    11 1   
    15     5     6 1   
    16     5    22 1   
    17     6    12 2   
    18     6    23 1   
    19     7    13 1   
    20     7    14 2   
    21     8     9 2   
    22     8    15 1   
    23     9    24 1   
    24    10    15 1   
    25    10    25 1   
    26    11    12 1   
    27    13    26 1   
@<TRIPOS>SUBSTRUCTURE
     1 JO1         1 TEMP              0 ****  ****    0 ROOT
