@<TRIPOS>MOLECULE
molecule
   15    14     1     0     0
SMALL
bcc


@<TRIPOS>ATOM
      1 OAN          0.0000     0.0000     0.0000 o          1 JO3      -0.889300
      2 CAM          1.3420     0.0000     0.0000 c          1 JO3       0.892600
      3 OAO          1.9460     0.0010    -1.0460 o          1 JO3      -0.889300
      4 CAL          2.0950     0.0000     1.3060 c3         1 JO3      -0.150700
      5 CAQ          1.7250     1.2480     2.1080 c3         1 JO3      -0.048100
      6 CAK          3.5990    -0.0000     1.0260 c3         1 JO3      -0.155400
      7 CAJ          4.3520    -0.1240     2.3270 c          1 JO3       0.886600
      8 OAP          3.7470    -0.2050     3.3690 o          1 JO3      -0.891800
      9 OAG          5.6940    -0.1450     2.3260 o          1 JO3      -0.891800
     10 HAL          1.8340    -0.8850     1.8740 hc         1 JO3       0.044700
     11 HAQ1         1.4390     0.9610     3.1120 hc         1 JO3       0.010033
     12 HAQ2         2.5780     1.9150     2.1530 hc         1 JO3       0.010033
     13 HAQ3         0.8970     1.7540     1.6270 hc         1 JO3       0.010033
     14 HAK1         3.8760     0.9250     0.5360 hc         1 JO3       0.031700
     15 HAK2         3.8470    -0.8370     0.3840 hc         1 JO3       0.031700
@<TRIPOS>BOND
     1     1     2 1
     2     2     3 1
     3     2     4 1
     4     4     5 1
     5     4     6 1
     6     6     7 1
     7     7     8 1
     8     7     9 1
     9     4    10 1
    10     5    11 1
    11     5    12 1
    12     5    13 1
    13     6    14 1
    14     6    15 1
@<TRIPOS>SUBSTRUCTURE
     1 JO3         1 TEMP              0 ****  ****    0 ROOT
