@<TRIPOS>MOLECULE
JO3
   15    14     1     0     0
SMALL
bcc


@<TRIPOS>ATOM
      1 OAN         0.0760   -0.3400    0.0340 o         1 JO3     -0.885300
      2 CAM         1.2560    0.1320    0.0080 c         1 JO3      0.904600
      3 OAO         1.7890    0.5190   -1.0770 o         1 JO3     -0.885300
      4 CAL         2.0230    0.2610    1.3390 c3        1 JO3     -0.146700
      5 CAQ         2.2330    1.7260    1.6540 c3        1 JO3     -0.073100
      6 CAK         3.3480   -0.4810    1.2960 c3        1 JO3     -0.153400
      7 CAJ         4.0600   -0.5740    2.6480 c         1 JO3      0.897600
      8 OAP         4.0030   -1.6630    3.3030 o         1 JO3     -0.889800
      9 OAG         4.7400    0.4120    3.0770 o         1 JO3     -0.889800
     10 HAL         1.3880   -0.1980    2.1460 hc        1 JO3      0.031700
     11 HAQ1        1.2620    2.2150    1.9120 hc        1 JO3      0.015033
     12 HAQ2        2.6630    2.2470    0.7640 hc        1 JO3      0.015033
     13 HAQ3        2.9420    1.8360    2.5120 hc        1 JO3      0.015033
     14 HAK1        4.0250    0.0340    0.5670 hc        1 JO3      0.022200
     15 HAK2        3.1620   -1.5200    0.9210 hc        1 JO3      0.022200
@<TRIPOS>BOND
     1    1    2 1   
     2    2    3 1   
     3    2    4 1   
     4    4    5 1   
     5    4    6 1   
     6    4   10 1   
     7    5   11 1   
     8    5   12 1   
     9    5   13 1   
    10    6    7 1   
    11    6   14 1   
    12    6   15 1   
    13    7    8 1   
    14    7    9 1   
@<TRIPOS>SUBSTRUCTURE
     1 JO3         1 TEMP              0 ****  ****    0 ROOT
