@<TRIPOS>MOLECULE
molecule
   25    26     1     0     0
SMALL
bcc


@<TRIPOS>ATOM
      1 C10          0.0000     0.0000     0.0000 ca         1 JO4      -0.185500
      2 C13          1.3840    -0.0000     2.3980 ca         1 JO4      -0.101000
      3 C15          0.7050     1.3230    -2.6050 ca         1 JO4      -0.169000
      4 O01         -1.4380     1.5740    -6.1650 o          1 JO4      -0.833800
      5 O03         -0.9340    -0.4970    -6.7870 o          1 JO4      -0.833800
      6 C04         -0.0910     0.3920    -4.6710 ca         1 JO4      -0.098600
      7 C05          0.5700    -0.8060    -4.3870 ca         1 JO4      -0.094500
      8 C06          1.2830    -0.9350    -3.2150 ca         1 JO4      -0.169000
      9 C07          1.3580     0.1280    -2.3240 ca         1 JO4       0.052100
     10 O08          2.0690     0.0000    -1.1760 os         1 JO4      -0.250200
     11 C09          1.3870     0.0000     0.0000 ca         1 JO4       0.152100
     12 C11         -0.6890    -0.0000     1.1960 ca         1 JO4      -0.101000
     13 C12          0.0010    -0.0000     2.3930 ca         1 JO4      -0.182000
     14 C14          2.0780     0.0000     1.2030 ca         1 JO4      -0.185500
     15 C16         -0.0170     1.4580    -3.7690 ca         1 JO4      -0.094500
     16 H101        -0.5420     0.0000    -0.9380 ha         1 JO4       0.148500
     17 H131         1.9230    -0.0000     3.3370 ha         1 JO4       0.123000
     18 H151         0.7640     2.1490    -1.9070 ha         1 JO4       0.120500
     19 H051         0.5120    -1.6360    -5.0810 ha         1 JO4       0.156500
     20 H061         1.7940    -1.8640    -2.9930 ha         1 JO4       0.120500
     21 H111        -1.7730    -0.0000     1.1970 ha         1 JO4       0.123000
     22 H121        -0.5420    -0.0010     3.3310 ha         1 JO4       0.117000
     23 H141         3.1620     0.0000     1.2060 ha         1 JO4       0.148500
     24 H161        -0.5260     2.3900    -3.9880 ha         1 JO4       0.156500
     25 C02         -0.8640     0.5310    -5.9190 c          1 JO4       0.880200
@<TRIPOS>BOND
     1     1    12 ar
     2     1    11 ar
     3    12    13 ar
     4     8     7 ar
     5     8     9 ar
     6    13     2 ar
     7    11    10 1
     8    11    14 ar
     9    10     9 1
    10     7     6 ar
    11     9     3 ar
    12     4    25 1
    13    14     2 ar
    14     6    25 1
    15     6    15 ar
    16    25     5 1
    17     3    15 ar
    18     1    16 1
    19     2    17 1
    20     3    18 1
    21     7    19 1
    22     8    20 1
    23    12    21 1
    24    13    22 1
    25    14    23 1
    26    15    24 1
@<TRIPOS>SUBSTRUCTURE
     1 JO4         1 TEMP              0 ****  ****    0 ROOT
