@<TRIPOS>MOLECULE
JO7
   35    36     1     0     0
SMALL
bcc


@<TRIPOS>ATOM
      1 C01          0.0000     0.0000     0.0000 c3         1 JO7       0.247700
      2 O02          1.4290     0.0000     0.0000 os         1 JO7      -0.416600
      3 C03          2.0120     0.0000     1.3100 c3         1 JO7       0.173100
      4 C04          2.1790    -1.4350     1.7890 c3         1 JO7       0.202800
      5 N05          3.3760    -2.0750     1.2430 n3         1 JO7      -0.521500
      6 C06          4.6340    -1.3340     1.1010 c3         1 JO7       0.214500
      7 C07          5.2640    -1.0820     2.4700 c3         1 JO7      -0.029400
      8 C08          4.3330    -0.2630     3.3570 c3         1 JO7      -0.062400
      9 C09          3.8770     1.0170     2.6700 c3         1 JO7       0.206100
     10 O10          4.9770     1.9300     2.5900 oh         1 JO7      -0.584800
     11 C11          3.3290     0.7640     1.2730 c3         1 JO7      -0.060700
     12 C12          4.3520     0.0090     0.4240 c3         1 JO7      -0.030400
     13 S13          3.3100    -3.6720     0.7760 s6         1 JO7       0.957900
     14 O14          4.6490    -4.1300     0.9030 o          1 JO7      -0.588300
     15 O15          2.2680    -4.2250     1.5690 o          1 JO7      -0.588300
     16 C16          2.8180    -3.6130    -0.9690 c3         1 JO7       0.013700
     17 H012        -0.3610     0.9870     0.2610 h1         1 JO7      -0.010967
     18 H013        -0.3610    -0.2670    -0.9860 h1         1 JO7      -0.010967
     19 H011        -0.3610    -0.7200     0.7240 h1         1 JO7      -0.010967
     20 H031         1.3410     0.5110     1.9900 h1         1 JO7       0.008700
     21 H041         2.2450    -1.4350     2.8700 h1         1 JO7       0.031700
     22 H042         1.3100    -2.0060     1.4860 h1         1 JO7       0.031700
     23 H061         5.3210    -1.9070     0.4890 h1         1 JO7       0.046700
     24 H072         5.4640    -2.0330     2.9480 hc         1 JO7       0.029200
     25 H071         6.1940    -0.5420     2.3380 hc         1 JO7       0.029200
     26 H082         3.4620    -0.8610     3.6000 hc         1 JO7       0.028700
     27 H081         4.8550    -0.0050     4.2710 hc         1 JO7       0.028700
     28 H091         3.0930     1.4660     3.2680 h1         1 JO7      -0.010300
     29 H101         4.7970     2.6860     3.1250 ho         1 JO7       0.387000
     30 H111         3.1460     1.7240     0.8050 hc         1 JO7       0.038700
     31 H121         5.2670     0.5850     0.3570 hc         1 JO7       0.030700
     32 H122         3.9510    -0.1580    -0.5690 hc         1 JO7       0.030700
     33 H163         1.7900    -3.2810    -1.0440 h1         1 JO7       0.062033
     34 H161         2.9110    -4.6010    -1.4040 h1         1 JO7       0.062033
     35 H162         3.4600    -2.9220    -1.5020 h1         1 JO7       0.062033
@<TRIPOS>BOND
     1     1     2 1   
     2     1    17 1   
     3     1    18 1   
     4     1    19 1   
     5     2     3 1   
     6     3     4 1   
     7     3    11 1   
     8     3    20 1   
     9     4     5 1   
    10     4    21 1   
    11     4    22 1   
    12     5     6 1   
    13     5    13 1   
    14     6     7 1   
    15     6    12 1   
    16     6    23 1   
    17     7     8 1   
    18     7    24 1   
    19     7    25 1   
    20     8     9 1   
    21     8    26 1   
    22     8    27 1   
    23     9    10 1   
    24     9    11 1   
    25     9    28 1   
    26    10    29 1   
    27    11    12 1   
    28    11    30 1   
    29    12    31 1   
    30    12    32 1   
    31    13    14 2   
    32    13    15 2   
    33    13    16 1   
    34    16    33 1   
    35    16    34 1   
    36    16    35 1   
@<TRIPOS>SUBSTRUCTURE
     1 JO7         1 TEMP              0 ****  ****    0 ROOT
