@<TRIPOS>MOLECULE
JOA
   38    39     1     0     0
SMALL
bcc


@<TRIPOS>ATOM
      1 C10          0.0000     0.0000     0.0000 c3         1 JOA       0.184800
      2 C15         -3.3050    -0.7690     1.1180 c3         1 JOA       0.006700
      3 C17          2.1920    -0.9320    -2.1070 c3         1 JOA       0.251700
      4 O02          2.5960     1.3460     3.3460 os         1 JOA      -0.408600
      5 C03          1.8290     1.3060     2.1370 c3         1 JOA       0.193100
      6 C04          0.3550     1.4900     2.4710 c3         1 JOA      -0.073400
      7 C05         -0.2300     0.2610     3.1590 c3         1 JOA      -0.034400
      8 C06          0.0430    -1.0040     2.3460 c3         1 JOA       0.200500
      9 C07          1.5560    -1.1870     2.2010 c3         1 JOA      -0.023400
     10 C08          2.1040     0.0000     1.4070 c3         1 JOA      -0.053700
     11 C09          1.5230     0.0000     0.0000 c3         1 JOA       0.182100
     12 N11         -0.5580    -0.8970     1.0130 n3         1 JOA      -0.515500
     13 S12         -1.8990    -1.8130     0.6460 s6         1 JOA       0.958900
     14 O13         -1.8010    -2.9380     1.5070 o          1 JOA      -0.584300
     15 O14         -1.8440    -1.9650    -0.7670 o          1 JOA      -0.584300
     16 O16          1.9990    -1.1500    -0.7090 os         1 JOA      -0.401600
     17 H102        -0.3490     1.0070     0.1940 h1         1 JOA       0.033200
     18 H101        -0.3490    -0.3150    -0.9760 h1         1 JOA       0.033200
     19 H151        -3.4410    -0.8120     2.1920 h1         1 JOA       0.061367
     20 H152        -4.2010    -1.1250     0.6260 h1         1 JOA       0.061367
     21 H153        -3.1110     0.2550     0.8200 h1         1 JOA       0.061367
     22 H172         3.1140    -0.3850    -2.2630 h1         1 JOA      -0.011633
     23 H173         1.3610    -0.3600    -2.5020 h1         1 JOA      -0.011633
     24 H171         2.2480    -1.8860    -2.6170 h1         1 JOA      -0.011633
     25 H013         3.4830     3.1610     2.9420 h1         1 JOA      -0.012633
     26 H011         2.0830     3.2240     4.0210 h1         1 JOA      -0.012633
     27 H012         3.6300     2.6000     4.6130 h1         1 JOA      -0.012633
     28 H031         2.1390     2.1260     1.5000 h1         1 JOA       0.001700
     29 H041         0.2470     2.3450     3.1280 hc         1 JOA       0.025700
     30 H042        -0.1930     1.6730     1.5540 hc         1 JOA       0.025700
     31 H051        -1.3000     0.3890     3.2660 hc         1 JOA       0.018700
     32 H052         0.2210     0.1560     4.1390 hc         1 JOA       0.018700
     33 H061        -0.3750    -1.8600     2.8620 h1         1 JOA       0.062700
     34 H072         1.7650    -2.1080     1.6720 hc         1 JOA       0.036700
     35 H071         2.0170    -1.2150     3.1810 hc         1 JOA       0.036700
     36 H081         3.1780    -0.1180     1.3260 hc         1 JOA       0.043700
     37 H091         1.8650     0.8920    -0.5110 h1         1 JOA       0.004700
     38 C01          2.9710     2.6620     3.7550 c3         1 JOA       0.249700
@<TRIPOS>BOND
     1     1    11 1   
     2     1    12 1   
     3     1    17 1   
     4     1    18 1   
     5     2    13 1   
     6     2    19 1   
     7     2    20 1   
     8     2    21 1   
     9     3    16 1   
    10     3    22 1   
    11     3    23 1   
    12     3    24 1   
    13     4     5 1   
    14     4    38 1   
    15     5     6 1   
    16     5    10 1   
    17     5    28 1   
    18     6     7 1   
    19     6    29 1   
    20     6    30 1   
    21     7     8 1   
    22     7    31 1   
    23     7    32 1   
    24     8     9 1   
    25     8    12 1   
    26     8    33 1   
    27     9    10 1   
    28     9    34 1   
    29     9    35 1   
    30    10    11 1   
    31    10    36 1   
    32    11    16 1   
    33    11    37 1   
    34    12    13 1   
    35    13    14 2   
    36    13    15 2   
    37    25    38 1   
    38    26    38 1   
    39    27    38 1   
@<TRIPOS>SUBSTRUCTURE
     1 JOA         1 TEMP              0 ****  ****    0 ROOT
