@<TRIPOS>MOLECULE
JOD
   26    28     1     0     0
SMALL
bcc


@<TRIPOS>ATOM
      1 C10          0.0000     0.0000     0.0000 c3         1 JOD       0.197400
      2 O01          1.6350     1.1240     2.1860 oh         1 JOD      -0.574800
      3 C02          2.1030     0.0000     1.4370 c3         1 JOD       0.162800
      4 C03          3.6360    -0.0020     1.3130 c3         1 JOD      -0.060900
      5 C04          4.0710    -0.9970     0.2320 c3         1 JOD      -0.041900
      6 C05          2.9880    -2.0900     0.0960 c3         1 JOD       0.092700
      7 C06          2.5960    -2.4590     1.5510 c3         1 JOD      -0.041900
      8 C07          1.6860    -1.3300     2.0920 c3         1 JOD      -0.060900
      9 N08          1.7960    -1.4070    -0.4390 n          1 JOD      -0.217800
     10 C09          1.5400     0.0000     0.0000 c3         1 JOD      -0.012300
     11 O11         -0.3050    -1.0040    -1.0270 os         1 JOD      -0.384900
     12 C12          0.7900    -1.7760    -1.2080 c          1 JOD       0.799600
     13 O13          0.8400    -2.7050    -1.9900 o          1 JOD      -0.679500
     14 H102        -0.3850     0.9720    -0.2860 h1         1 JOD       0.035700
     15 H101        -0.3850    -0.3080     0.9650 h1         1 JOD       0.035700
     16 H011         2.2030     1.2690     2.9240 ho         1 JOD       0.400000
     17 H032         4.0730    -0.2880     2.2620 hc         1 JOD       0.028450
     18 H031         3.9760     0.9910     1.0460 hc         1 JOD       0.028450
     19 H042         4.1860    -0.4800    -0.7130 hc         1 JOD       0.027200
     20 H041         5.0130    -1.4510     0.5140 hc         1 JOD       0.027200
     21 H051         3.3020    -2.9410    -0.4960 h1         1 JOD       0.065700
     22 H062         3.4860    -2.5370     2.1630 hc         1 JOD       0.027200
     23 H061         2.0590    -3.4000     1.5600 hc         1 JOD       0.027200
     24 H071         1.7970    -1.2570     3.1670 hc         1 JOD       0.028450
     25 H072         0.6530    -1.5480     1.8470 hc         1 JOD       0.028450
     26 H091         1.9830     0.7430    -0.6520 h1         1 JOD       0.061700
@<TRIPOS>BOND
     1     1    10 1   
     2     1    11 1   
     3     1    14 1   
     4     1    15 1   
     5     2     3 1   
     6     2    16 1   
     7     3     4 1   
     8     3     8 1   
     9     3    10 1   
    10     4     5 1   
    11     4    17 1   
    12     4    18 1   
    13     5     6 1   
    14     5    19 1   
    15     5    20 1   
    16     6     7 1   
    17     6     9 1   
    18     6    21 1   
    19     7     8 1   
    20     7    22 1   
    21     7    23 1   
    22     8    24 1   
    23     8    25 1   
    24     9    10 1   
    25     9    12 1   
    26    10    26 1   
    27    11    12 1   
    28    12    13 2   
@<TRIPOS>SUBSTRUCTURE
     1 JOD         1 TEMP              0 ****  ****    0 ROOT
