@<TRIPOS>MOLECULE
molecule
   40    42     1     0     0
SMALL
bcc


@<TRIPOS>ATOM
      1 C10          0.0000     0.0000     0.0000 c3         1 JOG       0.096000
      2 C15         -3.4270    -2.1830    -0.7690 ca         1 JOG       0.070600
      3 C17         -5.0810    -3.8390    -0.2500 ca         1 JOG      -0.112500
      4 C20         -4.2370    -1.6960    -1.7870 ca         1 JOG      -0.155500
      5 O01          2.2880     2.4050     1.3480 oh         1 JOG      -0.615800
      6 C02          1.8360     1.3030     2.1440 c3         1 JOG       0.152100
      7 C03          0.3590     1.4920     2.4710 c3         1 JOG      -0.103400
      8 C04         -0.2230     0.2650     3.1650 c3         1 JOG      -0.092400
      9 C05          0.0440    -1.0000     2.3500 c3         1 JOG       0.133700
     10 C06          1.5570    -1.1870     2.2020 c3         1 JOG      -0.084400
     11 C07          2.1040     0.0000     1.4060 c3         1 JOG      -0.078700
     12 C08          1.5230     0.0000     0.0000 c3         1 JOG       0.145100
     13 O09          1.9960    -1.1550    -0.7070 oh         1 JOG      -0.606800
     14 N11         -0.5590    -0.8870     1.0190 n          1 JOG      -0.492800
     15 C12         -1.6610    -1.6250     0.7250 c          1 JOG       0.791100
     16 O13         -2.1750    -2.3170     1.5820 o          1 JOG      -0.651100
     17 N14         -2.1850    -1.5880    -0.5160 ns         1 JOG      -0.490100
     18 C16         -3.8530    -3.2580    -0.0010 ca         1 JOG      -0.155500
     19 C18         -5.8810    -3.3570    -1.2700 ca         1 JOG      -0.152000
     20 C19         -5.4620    -2.2840    -2.0330 ca         1 JOG      -0.112500
     21 H101        -0.3490    -0.3230    -0.9740 h1         1 JOG       0.050700
     22 H102        -0.3490     1.0090     0.1860 h1         1 JOG       0.050700
     23 H171        -5.4140    -4.6790     0.3480 ha         1 JOG       0.130000
     24 H201        -3.9090    -0.8550    -2.3860 ha         1 JOG       0.154000
     25 H011         2.8620     2.9490     1.8620 ho         1 JOG       0.405000
     26 H021         2.3930     1.2910     3.0730 h1         1 JOG       0.033700
     27 H032         0.2500     2.3500     3.1240 hc         1 JOG       0.053700
     28 H031        -0.1860     1.6680     1.5520 hc         1 JOG       0.053700
     29 H041         0.2340     0.1600     4.1420 hc         1 JOG       0.054200
     30 H042        -1.2920     0.3950     3.2790 hc         1 JOG       0.054200
     31 H051        -0.3760    -1.8560     2.8640 h1         1 JOG       0.096700
     32 H061         1.7620    -2.1090     1.6720 hc         1 JOG       0.062200
     33 H062         2.0190    -1.2150     3.1810 hc         1 JOG       0.062200
     34 H071         3.1780    -0.1200     1.3230 hc         1 JOG       0.059700
     35 H081         1.8660     0.8900    -0.5130 h1         1 JOG       0.056700
     36 H091         2.4810    -0.8810    -1.4680 ho         1 JOG       0.402000
     37 H141        -1.6700    -1.1690    -1.2650 hn         1 JOG       0.325500
     38 H161        -3.2250    -3.6370     0.7960 ha         1 JOG       0.154000
     39 H181        -6.8430    -3.8160    -1.4640 ha         1 JOG       0.126000
     40 H191        -6.0930    -1.9080    -2.8290 ha         1 JOG       0.130000
@<TRIPOS>BOND
     1    13    12 1
     2    12    11 1
     3    12     1 1
     4    11     6 1
     5    11    10 1
     6     5     6 1
     7     6     7 1
     8    10     9 1
     9     1    14 1
    10     7     8 1
    11    14     9 1
    12    14    15 1
    13     9     8 1
    14    18     3 ar
    15    18     2 ar
    16    17    15 1
    17    17     2 1
    18     3    19 ar
    19    15    16 2
    20     2     4 ar
    21    19    20 ar
    22     4    20 ar
    23     1    21 1
    24     1    22 1
    25     3    23 1
    26     4    24 1
    27     5    25 1
    28     6    26 1
    29     7    27 1
    30     7    28 1
    31     8    29 1
    32     8    30 1
    33     9    31 1
    34    10    32 1
    35    10    33 1
    36    11    34 1
    37    12    35 1
    38    13    36 1
    39    17    37 1
    40    18    38 1
    41    19    39 1
    42    20    40 1
@<TRIPOS>SUBSTRUCTURE
     1 JOG         1 TEMP              0 ****  ****    0 ROOT
