@<TRIPOS>MOLECULE
JOG
   40    42     1     0     0
SMALL
bcc


@<TRIPOS>ATOM
      1 C10          0.0000     0.0000     0.0000 c3         1 JOG       0.016000
      2 C15         -3.4270    -2.1830    -0.7690 ca         1 JOG      -0.073400
      3 C17         -5.0810    -3.8390    -0.2500 ca         1 JOG      -0.082000
      4 C20         -4.2370    -1.6960    -1.7870 ca         1 JOG      -0.136000
      5 O01          2.2880     2.4050     1.3480 oh         1 JOG      -0.594800
      6 C02          1.8360     1.3030     2.1440 c3         1 JOG       0.203100
      7 C03          0.3590     1.4920     2.4710 c3         1 JOG      -0.070400
      8 C04         -0.2230     0.2650     3.1650 c3         1 JOG      -0.031400
      9 C05          0.0440    -1.0000     2.3500 c3         1 JOG       0.040700
     10 C06          1.5570    -1.1870     2.2020 c3         1 JOG      -0.028400
     11 C07          2.1040     0.0000     1.4060 c3         1 JOG      -0.071700
     12 C08          1.5230     0.0000     0.0000 c3         1 JOG       0.191100
     13 O09          1.9960    -1.1550    -0.7070 oh         1 JOG      -0.588800
     14 N11         -0.5590    -0.8870     1.0190 n          1 JOG      -0.155800
     15 C12         -1.6610    -1.6250     0.7250 c          1 JOG       0.588100
     16 O13         -2.1750    -2.3170     1.5820 o          1 JOG      -0.698100
     17 N14         -2.1850    -1.5880    -0.5160 ns         1 JOG      -0.061100
     18 C16         -3.8530    -3.2580    -0.0010 ca         1 JOG      -0.136000
     19 C18         -5.8810    -3.3570    -1.2700 ca         1 JOG      -0.124000
     20 C19         -5.4620    -2.2840    -2.0330 ca         1 JOG      -0.082000
     21 H101        -0.3490    -0.3230    -0.9740 h1         1 JOG       0.031700
     22 H102        -0.3490     1.0090     0.1860 h1         1 JOG       0.031700
     23 H171        -5.4140    -4.6790     0.3480 ha         1 JOG       0.100500
     24 H201        -3.9090    -0.8550    -2.3860 ha         1 JOG       0.135500
     25 H011         2.8620     2.9490     1.8620 ho         1 JOG       0.393000
     26 H021         2.3930     1.2910     3.0730 h1         1 JOG       0.000700
     27 H032         0.2500     2.3500     3.1240 hc         1 JOG       0.029700
     28 H031        -0.1860     1.6680     1.5520 hc         1 JOG       0.029700
     29 H041         0.2340     0.1600     4.1420 hc         1 JOG       0.024700
     30 H042        -1.2920     0.3950     3.2790 hc         1 JOG       0.024700
     31 H051        -0.3760    -1.8560     2.8640 h1         1 JOG       0.072700
     32 H061         1.7620    -2.1090     1.6720 hc         1 JOG       0.032200
     33 H062         2.0190    -1.2150     3.1810 hc         1 JOG       0.032200
     34 H071         3.1780    -0.1200     1.3230 hc         1 JOG       0.035700
     35 H081         1.8660     0.8900    -0.5130 h1         1 JOG       0.021700
     36 H091         2.4810    -0.8810    -1.4680 ho         1 JOG       0.390000
     37 H141        -1.6700    -1.1690    -1.2650 hn         1 JOG       0.175500
     38 H161        -3.2250    -3.6370     0.7960 ha         1 JOG       0.135500
     39 H181        -6.8430    -3.8160    -1.4640 ha         1 JOG       0.100000
     40 H191        -6.0930    -1.9080    -2.8290 ha         1 JOG       0.100500
@<TRIPOS>BOND
     1     1    12 1   
     2     1    14 1   
     3     1    21 1   
     4     1    22 1   
     5     2     4 ar  
     6     2    17 1   
     7     2    18 ar  
     8     3    18 ar  
     9     3    19 ar  
    10     3    23 1   
    11     4    20 ar  
    12     4    24 1   
    13     5     6 1   
    14     5    25 1   
    15     6     7 1   
    16     6    11 1   
    17     6    26 1   
    18     7     8 1   
    19     7    27 1   
    20     7    28 1   
    21     8     9 1   
    22     8    29 1   
    23     8    30 1   
    24     9    10 1   
    25     9    14 1   
    26     9    31 1   
    27    10    11 1   
    28    10    32 1   
    29    10    33 1   
    30    11    12 1   
    31    11    34 1   
    32    12    13 1   
    33    12    35 1   
    34    13    36 1   
    35    14    15 1   
    36    15    16 2   
    37    15    17 1   
    38    17    37 1   
    39    18    38 1   
    40    19    20 ar  
    41    19    39 1   
    42    20    40 1   
@<TRIPOS>SUBSTRUCTURE
     1 JOG         1 TEMP              0 ****  ****    0 ROOT
