@<TRIPOS>MOLECULE
molecule
   17    17     1     0     0
SMALL
bcc


@<TRIPOS>ATOM
      1 C10          0.0000     0.0000     0.0000 cc         1 JOJ      -0.140200
      2 N01          3.2070     1.6620    -2.7350 nz         1 JOJ      -0.602400
      3 C02          2.4380     1.4160    -1.6560 cs         1 JOJ      -0.014600
      4 S03          1.7360     2.6270    -0.8820 s          1 JOJ       0.073600
      5 C04          2.2390     0.0000    -1.1790 c3         1 JOJ       0.021300
      6 N05          1.3700     0.0000     0.0000 na         1 JOJ      -0.208900
      7 C06          1.7680     0.0000     1.2910 cc         1 JOJ       0.436400
      8 N07          0.7120     0.0000     2.0560 nd         1 JOJ      -0.635000
      9 C08         -0.3900     0.0000     1.2910 cd         1 JOJ       0.470300
     10 Cl09        -2.0300     0.0010     1.8620 cl         1 JOJ      -0.070000
     11 Cl11        -1.0360     0.0070    -1.3940 cl         1 JOJ      -0.024400
     12 H011         2.8360     1.1750    -3.5270 hn         1 JOJ       0.466467
     13 H012         3.2160     2.6450    -2.9220 hn         1 JOJ       0.466467
     14 H041         1.7790    -0.5850    -1.9660 h1         1 JOJ       0.105700
     15 H042         3.1980    -0.4320    -0.9210 h1         1 JOJ       0.105700
     16 H061         2.7960    -0.0000     1.6340 h5         1 JOJ       0.082100
     17 H013         4.1450     1.3660    -2.5510 hn         1 JOJ       0.466467
@<TRIPOS>BOND
     1    11     1 1
     2     2     3 1
     3     5     3 1
     4     5     6 1
     5     3     4 2
     6     1     6 1
     7     1     9 2
     8     6     7 1
     9     9    10 1
    10     9     8 1
    11     7     8 2
    12     2    12 1
    13     2    13 1
    14     5    14 1
    15     5    15 1
    16     7    16 1
    17    17     2 1
@<TRIPOS>SUBSTRUCTURE
     1 JOJ         1 TEMP              0 ****  ****    0 ROOT
