@<TRIPOS>MOLECULE
JOJ
   17    17     1     0     0
SMALL
bcc


@<TRIPOS>ATOM
      1 C10          0.0000     0.0000     0.0000 cc         1 JOJ      -0.394200
      2 N01          3.2070     1.6620    -2.7350 nz         1 JOJ       0.323600
      3 C02          2.4380     1.4160    -1.6560 cs         1 JOJ      -0.214600
      4 S03          1.7360     2.6270    -0.8820 s          1 JOJ       0.042600
      5 C04          2.2390     0.0000    -1.1790 c3         1 JOJ      -0.029700
      6 N05          1.3700     0.0000     0.0000 na         1 JOJ       0.253100
      7 C06          1.7680     0.0000     1.2910 cc         1 JOJ       0.257400
      8 N07          0.7120     0.0000     2.0560 nd         1 JOJ      -0.543000
      9 C08         -0.3900     0.0000     1.2910 cd         1 JOJ       0.357300
     10 Cl09        -2.0300     0.0010     1.8620 cl         1 JOJ       0.016000
     11 Cl11        -1.0360     0.0070    -1.3940 cl         1 JOJ       0.079600
     12 H011         2.8360     1.1750    -3.5270 hn         1 JOJ       0.227800
     13 H012         3.2160     2.6450    -2.9220 hn         1 JOJ       0.227800
     14 H041         1.7790    -0.5850    -1.9660 h1         1 JOJ       0.067700
     15 H042         3.1980    -0.4320    -0.9210 h1         1 JOJ       0.067700
     16 H061         2.7960    -0.0000     1.6340 h5         1 JOJ       0.032100
     17 H013         4.1450     1.3660    -2.5510 hn         1 JOJ       0.227800
@<TRIPOS>BOND
     1     1     6 1   
     2     1     9 2   
     3     1    11 1   
     4     2     3 1   
     5     2    12 1   
     6     2    13 1   
     7     2    17 1   
     8     3     4 2   
     9     3     5 1   
    10     5     6 1   
    11     5    14 1   
    12     5    15 1   
    13     6     7 1   
    14     7     8 2   
    15     7    16 1   
    16     8     9 1   
    17     9    10 1   
@<TRIPOS>SUBSTRUCTURE
     1 JOJ         1 TEMP              0 ****  ****    0 ROOT
