@<TRIPOS>MOLECULE
JOM
   23    24     1     0     0
SMALL
bcc


@<TRIPOS>ATOM
      1 C10          0.0000     0.0000     0.0000 cc         1 JOM       0.484100
      2 N12          1.9550     0.0000     1.2090 ns         1 JOM       0.287100
      3 C13          1.1880     0.0030     2.3160 cs         1 JOM       0.267000
      4 C17         -4.4530     0.4400    -1.6130 ca         1 JOM      -0.005500
      5 F01         -7.0720     0.7020    -0.8370 f          1 JOM      -0.206300
      6 F03         -6.7330    -0.6900     0.9420 f          1 JOM      -0.206300
      7 F04         -6.9210    -1.5550    -1.1650 f          1 JOM      -0.206300
      8 C05         -4.9570    -0.3490    -0.5950 ca         1 JOM      -0.223300
      9 C06         -4.0980    -1.0220     0.2540 ca         1 JOM      -0.005500
     10 C07         -2.7310    -0.9090     0.0870 ca         1 JOM      -0.142000
     11 C08         -2.2210    -0.1170    -0.9340 ca         1 JOM       0.004600
     12 N09         -0.8390    -0.0010    -1.1060 nu         1 JOM      -0.192600
     13 N11          1.2960     0.0000     0.0000 n2         1 JOM      -0.679300
     14 S14          1.7060     0.0040     3.9470 s          1 JOM      -0.527400
     15 S15         -0.4790     0.0060     1.7080 ss         1 JOM      -0.174800
     16 C16         -3.0880     0.5520    -1.7880 ca         1 JOM      -0.142000
     17 H121         2.9540    -0.0000     1.2630 hn         1 JOM       0.214500
     18 H171        -5.1300     0.9620    -2.2790 ha         1 JOM       0.123500
     19 H061        -4.4970    -1.6390     1.0500 ha         1 JOM       0.123500
     20 H071        -2.0580    -1.4360     0.7520 ha         1 JOM       0.131500
     21 H091        -0.4580     0.1320    -2.0220 hn         1 JOM       0.298800
     22 H161        -2.6930     1.1700    -2.5860 ha         1 JOM       0.131500
     23 C02         -6.4480    -0.4760    -0.4110 c3         1 JOM       0.642200
@<TRIPOS>BOND
     1     1    12 1   
     2     1    13 2   
     3     1    15 1   
     4     2     3 1   
     5     2    13 1   
     6     2    17 1   
     7     3    14 2   
     8     3    15 1   
     9     4     8 ar  
    10     4    16 ar  
    11     4    18 1   
    12     5    23 1   
    13     6    23 1   
    14     7    23 1   
    15     8     9 ar  
    16     8    23 1   
    17     9    10 ar  
    18     9    19 1   
    19    10    11 ar  
    20    10    20 1   
    21    11    12 1   
    22    11    16 ar  
    23    12    21 1   
    24    16    22 1   
@<TRIPOS>SUBSTRUCTURE
     1 JOM         1 TEMP              0 ****  ****    0 ROOT
