@<TRIPOS>MOLECULE
molecule
   35    36     1     0     0
SMALL
bcc


@<TRIPOS>ATOM
      1 C10          0.0000     0.0000     0.0000 c3         1 JOP      -0.092400
      2 C13          1.5450    -1.4190     2.0140 c3         1 JOP      -0.085400
      3 C15          0.7700     0.8580     2.1150 c3         1 JOP      -0.084400
      4 C01          6.8020    -3.6930    -3.5990 c3         1 JOP      -0.114100
      5 C02          5.3950    -3.6890    -2.9990 c3         1 JOP       0.121100
      6 O03          5.3030    -4.7000    -1.9930 oh         1 JOP      -0.605800
      7 C04          5.1120    -2.3200    -2.3740 c3         1 JOP       0.122000
      8 N05          3.7650    -2.3170    -1.7980 ns         1 JOP      -0.519900
      9 C06          3.2950    -1.2080    -1.1900 cs         1 JOP       0.607400
     10 S07          4.2730     0.1930    -1.0910 s          1 JOP      -0.725400
     11 N08          2.0560    -1.2040    -0.6610 ns         1 JOP      -0.513900
     12 C09          1.5460     0.0000     0.0000 c3         1 JOP       0.113700
     13 C11         -0.3960    -0.0010     1.5080 c3         1 JOP      -0.085700
     14 C12          0.0000    -1.4220     2.0130 c3         1 JOP      -0.084400
     15 C14          1.9400     0.0000     1.5080 c3         1 JOP      -0.080700
     16 H102        -0.3770    -0.8890    -0.4900 hc         1 JOP       0.048700
     17 H101        -0.3770     0.8900    -0.4890 hc         1 JOP       0.048700
     18 H132         1.9220    -1.5810     3.0170 hc         1 JOP       0.045200
     19 H131         1.9240    -2.1790     1.3410 hc         1 JOP       0.045200
     20 H152         0.7690     0.8310     3.1980 hc         1 JOP       0.054200
     21 H151         0.7690     1.8700     1.7290 hc         1 JOP       0.054200
     22 H012         7.5310    -3.5520    -2.8110 hc         1 JOP       0.048367
     23 H013         6.9810    -4.6410    -4.0930 hc         1 JOP       0.048367
     24 H021         4.6690    -3.8870    -3.7780 h1         1 JOP       0.028700
     25 H031         5.0190    -5.5080    -2.3850 ho         1 JOP       0.402000
     26 H042         5.8380    -2.1210    -1.5960 h1         1 JOP       0.083700
     27 H041         5.1800    -1.5540    -3.1370 h1         1 JOP       0.083700
     28 H051         3.1790    -3.1230    -1.8900 hn         1 JOP       0.309500
     29 H081         1.4670    -2.0070    -0.7600 hn         1 JOP       0.308500
     30 H091         1.9230     0.8900    -0.4890 h1         1 JOP       0.110700
     31 H111        -1.4010     0.3300     1.7420 hc         1 JOP       0.075700
     32 H121        -0.3760    -2.1810     1.3380 hc         1 JOP       0.040200
     33 H122        -0.3780    -1.5850     3.0150 hc         1 JOP       0.040200
     34 H141         2.9440     0.3330     1.7430 hc         1 JOP       0.102700
     35 H011         6.8890    -2.8890    -4.3200 hc         1 JOP       0.048367
@<TRIPOS>BOND
     1     4     5 1
     2     2    15 1
     3     2    14 1
     4    15     3 1
     5    15    12 1
     6     7     8 1
     7     7     5 1
     8     8     9 1
     9     5     6 1
    10     9    11 1
    11     9    10 2
    12    14    13 1
    13    11    12 1
    14     3    13 1
    15    12     1 1
    16    13     1 1
    17     1    16 1
    18     1    17 1
    19     2    18 1
    20     2    19 1
    21     3    20 1
    22     3    21 1
    23     4    35 1
    24     4    22 1
    25     4    23 1
    26     5    24 1
    27     6    25 1
    28     7    26 1
    29     7    27 1
    30     8    28 1
    31    11    29 1
    32    12    30 1
    33    13    31 1
    34    14    32 1
    35    14    33 1
    36    15    34 1
@<TRIPOS>SUBSTRUCTURE
     1 JOP         1 TEMP              0 ****  ****    0 ROOT
