@<TRIPOS>MOLECULE
molecule
   29    29     1     0     0
SMALL
bcc


@<TRIPOS>ATOM
      1 C10          0.0000     0.0000     0.0000 ca         1 JOV      -0.067000
      2 C13          1.3880    -0.0110     2.4020 ca         1 JOV       0.019400
      3 C01          3.8540     1.2480    -3.3450 c3         1 JOV      -0.101600
      4 C02          4.2220    -0.0010    -2.5420 c3         1 JOV       0.129400
      5 C03          3.8530    -1.2500    -3.3460 c3         1 JOV      -0.101600
      6 C04          5.7260    -0.0020    -2.2580 c3         1 JOV       0.135400
      7 O05          6.4430    -0.0020    -3.4950 oh         1 JOV      -0.601800
      8 N06          3.4860    -0.0010    -1.2750 ns         1 JOV      -0.580900
      9 C07          2.1380     0.0000    -1.2790 c          1 JOV       0.681700
     10 O08          1.5340     0.0000    -2.3320 o          1 JOV      -0.603100
     11 C09          1.3960     0.0000     0.0000 ca         1 JOV      -0.137600
     12 C11         -0.6870     0.0010     1.1960 ca         1 JOV      -0.130000
     13 C12          0.0040    -0.0040     2.3950 ca         1 JOV      -0.101000
     14 C14          2.0880     0.0000     1.2120 ca         1 JOV      -0.102000
     15 Cl15         2.2450    -0.0170     3.9120 cl         1 JOV      -0.106400
     16 H101        -0.5430     0.0040    -0.9380 ha         1 JOV       0.162000
     17 H011         4.5860     1.4020    -4.1290 hc         1 JOV       0.052200
     18 H012         2.8730     1.1190    -3.7850 hc         1 JOV       0.052200
     19 H013         3.8440     2.1100    -2.6870 hc         1 JOV       0.052200
     20 H031         3.8420    -2.1110    -2.6890 hc         1 JOV       0.052200
     21 H032         4.5850    -1.4030    -4.1300 hc         1 JOV       0.052200
     22 H033         2.8730    -1.1190    -3.7870 hc         1 JOV       0.052200
     23 H041         5.9870     0.8820    -1.6890 h1         1 JOV       0.023200
     24 H042         5.9850    -0.8870    -1.6900 h1         1 JOV       0.023200
     25 H051         7.3690    -0.0020    -3.3200 ho         1 JOV       0.406000
     26 H061         3.9840     0.0160    -0.4070 hn         1 JOV       0.310500
     27 H111        -1.7700     0.0040     1.1970 ha         1 JOV       0.144000
     28 H121        -0.5410    -0.0080     3.3310 ha         1 JOV       0.147000
     29 H141         3.1710    -0.0030     1.2190 ha         1 JOV       0.137000
@<TRIPOS>BOND
     1     5     4 1
     2     4     3 1
     3     4     8 1
     4     4     6 1
     5     7     6 1
     6     8     9 1
     7     9    11 1
     8     9    10 2
     9    15     2 1
    10    14    11 ar
    11    14     2 ar
    12    11     1 ar
    13     2    13 ar
    14     1    12 ar
    15    13    12 ar
    16     1    16 1
    17     3    17 1
    18     3    18 1
    19     3    19 1
    20     5    20 1
    21     5    21 1
    22     5    22 1
    23     6    23 1
    24     6    24 1
    25     7    25 1
    26     8    26 1
    27    12    27 1
    28    13    28 1
    29    14    29 1
@<TRIPOS>SUBSTRUCTURE
     1 JOV         1 TEMP              0 ****  ****    0 ROOT
