@<TRIPOS>MOLECULE
molecule
   23    24     1     0     0
SMALL
bcc


@<TRIPOS>ATOM
      1 C10          0.0000     0.0000     0.0000 cc         1 JOY      -0.388300
      2 N12          0.6270     0.0090     2.1020 nd         1 JOY      -0.492800
      3 C13          3.1720     1.0250     4.0280 ca         1 JOY      -0.097500
      4 N01          4.1770     5.3220     5.9250 n1         1 JOY      -0.358800
      5 C03          3.7840     3.3240     4.3600 ca         1 JOY      -0.047000
      6 C04          3.9920     3.4630     2.9860 ca         1 JOY      -0.101000
      7 C05          3.7930     2.3850     2.1500 ca         1 JOY      -0.097500
      8 C06          3.3790     1.1700     2.6670 ca         1 JOY      -0.088300
      9 C07          3.1550    -0.0010     1.7450 c3         1 JOY       0.089600
     10 N08          1.7650     0.0000     1.2850 na         1 JOY       0.099400
     11 C09          1.3520     0.0000     0.0000 cd         1 JOY      -0.122300
     12 C11         -0.4310     0.0060     1.3310 cc         1 JOY       0.319200
     13 C14          3.3710     2.0940     4.8760 ca         1 JOY      -0.101000
     14 H101        -0.6590     0.1950    -0.8370 ha         1 JOY       0.154000
     15 H131         2.8330     0.0760     4.4250 ha         1 JOY       0.146000
     16 H041         4.3240     4.4870     2.8640 ha         1 JOY       0.147000
     17 H051         4.2720     2.5960     1.2010 ha         1 JOY       0.146000
     18 H072         3.2570     0.4650     0.7720 h1         1 JOY       0.083700
     19 H071         4.0770    -0.5290     1.9570 h1         1 JOY       0.083700
     20 H091         1.8190     0.1850    -0.9600 h4         1 JOY       0.178000
     21 H111        -1.5110    -0.0290     1.2590 h4         1 JOY       0.064100
     22 H141         3.5880     2.0810     5.9370 ha         1 JOY       0.147000
     23 C02          3.9930     4.4380     5.2360 cg         1 JOY       0.234800
@<TRIPOS>BOND
     1    12     2 2
     2    12     1 1
     3     4    23 3
     4     2    10 1
     5    23     5 1
     6    13     5 ar
     7    13     3 ar
     8     5     6 ar
     9     3     8 ar
    10     1    11 2
    11     6     7 ar
    12    10     9 1
    13    10    11 1
    14     8     7 ar
    15     8     9 1
    16     1    14 1
    17     3    15 1
    18     6    16 1
    19     7    17 1
    20     9    18 1
    21     9    19 1
    22    11    20 1
    23    12    21 1
    24    13    22 1
@<TRIPOS>SUBSTRUCTURE
     1 JOY         1 TEMP              0 ****  ****    0 ROOT
