@<TRIPOS>MOLECULE
JOY
   23    24     1     0     0
SMALL
bcc


@<TRIPOS>ATOM
      1 C10          0.0000     0.0000     0.0000 cc         1 JOY      -0.379300
      2 N12          0.6270     0.0090     2.1020 nd         1 JOY      -0.626800
      3 C13          3.1720     1.0250     4.0280 ca         1 JOY      -0.062500
      4 N01          4.1770     5.3220     5.9250 n1         1 JOY      -0.375800
      5 C03          3.7840     3.3240     4.3600 ca         1 JOY      -0.005000
      6 C04          3.9920     3.4630     2.9860 ca         1 JOY      -0.081500
      7 C05          3.7930     2.3850     2.1500 ca         1 JOY      -0.062500
      8 C06          3.3790     1.1700     2.6670 ca         1 JOY      -0.103300
      9 C07          3.1550    -0.0010     1.7450 c3         1 JOY      -0.000400
     10 N08          1.7650     0.0000     1.2850 na         1 JOY       0.545400
     11 C09          1.3520     0.0000     0.0000 cd         1 JOY      -0.264300
     12 C11         -0.4310     0.0060     1.3310 cc         1 JOY       0.383200
     13 C14          3.3710     2.0940     4.8760 ca         1 JOY      -0.081500
     14 H101        -0.6590     0.1950    -0.8370 ha         1 JOY       0.135000
     15 H131         2.8330     0.0760     4.4250 ha         1 JOY       0.118000
     16 H041         4.3240     4.4870     2.8640 ha         1 JOY       0.119500
     17 H051         4.2720     2.5960     1.2010 ha         1 JOY       0.118000
     18 H072         3.2570     0.4650     0.7720 h1         1 JOY       0.050700
     19 H071         4.0770    -0.5290     1.9570 h1         1 JOY       0.050700
     20 H091         1.8190     0.1850    -0.9600 h4         1 JOY       0.155000
     21 H111        -1.5110    -0.0290     1.2590 h4         1 JOY       0.020100
     22 H141         3.5880     2.0810     5.9370 ha         1 JOY       0.119500
     23 C02          3.9930     4.4380     5.2360 cg         1 JOY       0.227800
@<TRIPOS>BOND
     1     1    11 2   
     2     1    12 1   
     3     1    14 1   
     4     2    10 1   
     5     2    12 2   
     6     3     8 ar  
     7     3    13 ar  
     8     3    15 1   
     9     4    23 3   
    10     5     6 ar  
    11     5    13 ar  
    12     5    23 1   
    13     6     7 ar  
    14     6    16 1   
    15     7     8 ar  
    16     7    17 1   
    17     8     9 1   
    18     9    10 1   
    19     9    18 1   
    20     9    19 1   
    21    10    11 1   
    22    11    20 1   
    23    12    21 1   
    24    13    22 1   
@<TRIPOS>SUBSTRUCTURE
     1 JOY         1 TEMP              0 ****  ****    0 ROOT
