@<TRIPOS>MOLECULE
JOZ
   20    21     1     0     0
SMALL
bcc


@<TRIPOS>ATOM
      1 C4           0.0000     0.0000     0.0000 ca         1 JOZ      -0.029000
      2 C5           3.5960     0.0020    -1.1880 c3         1 JOZ       0.015900
      3 C6           4.1000     0.8020     0.0110 c3         1 JOZ       0.051000
      4 C7           2.0910     0.0020    -1.2100 ca         1 JOZ      -0.065300
      5 C8           1.3920     0.0000     0.0000 ca         1 JOZ      -0.151600
      6 C1           0.0150     0.0040    -2.3970 ca         1 JOZ      -0.075000
      7 C2          -0.6820     0.0010    -1.2010 ca         1 JOZ      -0.119000
      8 C3           1.4000     0.0050    -2.4010 ca         1 JOZ      -0.111000
      9 C9           2.1570     0.0000     1.2650 c          1 JOZ       0.643100
     10 N10          3.4570     0.3580     1.2440 ns         1 JOZ      -0.195900
     11 O11          1.6220    -0.3190     2.3090 o          1 JOZ      -0.682500
     12 H4          -0.5450    -0.0020     0.9360 ha         1 JOZ       0.125000
     13 H5           3.9530    -1.0180    -1.1140 hc         1 JOZ       0.029200
     14 H5A          3.9670     0.4530    -2.1010 hc         1 JOZ       0.029200
     15 H6           5.1680     0.6450     0.1050 h1         1 JOZ       0.017700
     16 H6A          3.8580     1.8460    -0.1460 h1         1 JOZ       0.017700
     17 H1          -0.5260     0.0050    -3.3350 ha         1 JOZ       0.102000
     18 H2          -1.7660     0.0000    -1.2070 ha         1 JOZ       0.107000
     19 H3           1.9390     0.0070    -3.3410 ha         1 JOZ       0.107000
     20 HN10         3.9900     0.3180     2.0900 hn         1 JOZ       0.184500
@<TRIPOS>BOND
     1     1     5 ar  
     2     1     7 ar  
     3     1    12 1   
     4     2     3 1   
     5     2     4 1   
     6     2    13 1   
     7     2    14 1   
     8     3    10 1   
     9     3    15 1   
    10     3    16 1   
    11     4     5 ar  
    12     4     8 ar  
    13     5     9 1   
    14     6     7 ar  
    15     6     8 ar  
    16     6    17 1   
    17     7    18 1   
    18     8    19 1   
    19     9    10 1   
    20     9    11 2   
    21    10    20 1   
@<TRIPOS>SUBSTRUCTURE
     1 JOZ         1 TEMP              0 ****  ****    0 ROOT
