@<TRIPOS>MOLECULE
JP1
   41    43     1     0     0
SMALL
bcc


@<TRIPOS>ATOM
      1 C2           0.0000     0.0000     0.0000 ca         1 JP1       0.069100
      2 C3           1.3860     0.0000     0.0000 ca         1 JP1      -0.092000
      3 C4           2.0770     0.0000     1.1980 ca         1 JP1      -0.111000
      4 C5           1.3870     0.0060     2.3970 ca         1 JP1      -0.017600
      5 C10         -0.9160     1.3000    -1.4960 ca         1 JP1       0.115100
      6 C11         -1.7820     1.6140    -2.5350 ca         1 JP1      -0.047600
      7 C12         -2.0260     2.9370    -2.8550 ca         1 JP1      -0.099000
      8 C15         -0.2870     2.3120    -0.7870 ca         1 JP1      -0.179000
      9 C19         -2.7850     5.6370    -3.0880 c          1 JP1       0.590100
     10 C23         -2.9040     9.0710    -2.1140 c3         1 JP1       0.185400
     11 C25         -4.9500     8.4760    -2.9940 c3         1 JP1       0.185400
     12 C26         -4.3710     7.3520    -3.8600 c3         1 JP1       0.020500
     13 O20         -3.5520     4.7760    -3.4760 o          1 JP1      -0.693100
     14 N21         -3.0840     6.9390    -3.2730 n          1 JP1      -0.180800
     15 O24         -4.0030     9.5390    -2.8950 os         1 JP1      -0.386600
     16 C22         -2.1380     8.0020    -2.8920 c3         1 JP1       0.020500
     17 C13         -1.3950     3.9500    -2.1450 ca         1 JP1      -0.099400
     18 Cl16        -2.5700     0.3470    -3.4220 cl         1 JP1      -0.006400
     19 C14         -0.5240     3.6340    -1.1100 ca         1 JP1      -0.102000
     20 O9          -0.6800    -0.0010    -1.1770 os         1 JP1      -0.181200
     21 C1          -0.6930     0.0110     1.2070 ca         1 JP1       0.129100
     22 O7          -2.0530     0.0160     1.2110 oh         1 JP1      -0.478100
     23 C6           0.0040     0.0120     2.4030 ca         1 JP1      -0.152000
     24 Cl27         2.2610     0.0060     3.8980 cl         1 JP1      -0.018400
     25 H3           1.9280    -0.0050    -0.9380 ha         1 JP1       0.124000
     26 H4           3.1600    -0.0020     1.1970 ha         1 JP1       0.120000
     27 H12         -2.7010     3.1830    -3.6650 ha         1 JP1       0.186000
     28 H15          0.3910     2.0660     0.0220 ha         1 JP1       0.136000
     29 H232        -2.2410     9.9000    -1.8940 h1         1 JP1       0.016950
     30 H251        -5.1650     8.0930    -2.0040 h1         1 JP1       0.016950
     31 H252        -5.8610     8.8470    -3.4490 h1         1 JP1       0.016950
     32 H261        -4.2130     7.7130    -4.8680 h1         1 JP1       0.034700
     33 H262        -5.0540     6.5110    -3.8690 h1         1 JP1       0.034700
     34 H221        -1.3570     7.5870    -2.2670 h1         1 JP1       0.034700
     35 H222        -1.7050     8.4410    -3.7830 h1         1 JP1       0.034700
     36 H14         -0.0320     4.4240    -0.5560 ha         1 JP1       0.103000
     37 HO7         -2.3690    -0.7790     1.6080 ho         1 JP1       0.408000
     38 H6          -0.5340     0.0180     3.3440 ha         1 JP1       0.127000
     39 N17         -1.6370     5.2910    -2.4730 ns         1 JP1      -0.053100
     40 H231        -3.2760     8.6460    -1.1900 h1         1 JP1       0.016950
     41 H17         -0.9370     5.9830    -2.2950 hn         1 JP1       0.171500
@<TRIPOS>BOND
     1     1     2 ar  
     2     1    20 1   
     3     1    21 ar  
     4     2     3 ar  
     5     2    25 1   
     6     3     4 ar  
     7     3    26 1   
     8     4    23 ar  
     9     4    24 1   
    10     5     6 ar  
    11     5     8 ar  
    12     5    20 1   
    13     6     7 ar  
    14     6    18 1   
    15     7    17 ar  
    16     7    27 1   
    17     8    19 ar  
    18     8    28 1   
    19     9    13 2   
    20     9    14 1   
    21     9    39 1   
    22    10    15 1   
    23    10    16 1   
    24    10    29 1   
    25    10    40 1   
    26    11    12 1   
    27    11    15 1   
    28    11    30 1   
    29    11    31 1   
    30    12    14 1   
    31    12    32 1   
    32    12    33 1   
    33    14    16 1   
    34    16    34 1   
    35    16    35 1   
    36    17    19 ar  
    37    17    39 1   
    38    19    36 1   
    39    21    22 1   
    40    21    23 ar  
    41    22    37 1   
    42    23    38 1   
    43    39    41 1   
@<TRIPOS>SUBSTRUCTURE
     1 JP1         1 TEMP              0 ****  ****    0 ROOT
