@<TRIPOS>MOLECULE
JP2
   20    21     1     0     0
SMALL
bcc


@<TRIPOS>ATOM
      1 C1           0.0000     0.0000     0.0000 cc         1 JP2       0.218100
      2 N1          -0.6520     0.0020    -1.2010 nz         1 JP2       0.189400
      3 O1           3.2400     0.0000     1.1200 o          1 JP2      -0.490100
      4 C2           2.0210     0.0000     1.1400 c          1 JP2       0.594000
      5 N2           1.3170     0.0000     0.0000 nd         1 JP2      -0.563100
      6 O2          -2.3070     0.0340     5.8920 o          1 JP2      -0.822800
      7 C3           1.2830     0.0090     2.4230 ca         1 JP2       0.157500
      8 N3          -0.7410     0.0030     1.1400 na         1 JP2      -0.238900
      9 O3          -0.3830     0.0420     6.9960 o          1 JP2      -0.822800
     10 C4          -0.1250     0.0080     2.3750 ca         1 JP2       0.269900
     11 N4          -0.8220     0.0160     3.4980 nb         1 JP2      -0.492000
     12 C5          -0.1850     0.0240     4.6650 ca         1 JP2       0.321500
     13 N5           1.9120     0.0180     3.5880 nb         1 JP2      -0.473000
     14 C6           1.2120     0.0250     4.7070 ca         1 JP2       0.324900
     15 C7          -0.9610     0.0340     5.9280 c          1 JP2       0.841100
     16 HN1         -1.2290    -0.8130    -1.2680 hn         1 JP2       0.220133
     17 HN1A         0.0190    -0.0020    -1.9440 hn         1 JP2       0.220133
     18 HN3         -1.7400     0.0020     1.0830 hn         1 JP2       0.288800
     19 H6           1.7230     0.0320     5.6620 h4         1 JP2       0.035100
     20 H13         -1.2210     0.8220    -1.2700 hn         1 JP2       0.220133
@<TRIPOS>BOND
     1     1     2 1   
     2     1     5 2   
     3     1     8 1   
     4     2    16 1   
     5     2    17 1   
     6     2    20 1   
     7     3     4 2   
     8     4     5 1   
     9     4     7 1   
    10     6    15 1   
    11     7    10 ar  
    12     7    13 ar  
    13     8    10 1   
    14     8    18 1   
    15     9    15 1   
    16    10    11 ar  
    17    11    12 ar  
    18    12    14 ar  
    19    12    15 1   
    20    13    14 ar  
    21    14    19 1   
@<TRIPOS>SUBSTRUCTURE
     1 JP2         1 TEMP              0 ****  ****    0 ROOT
