@<TRIPOS>MOLECULE
molecule
   20    21     1     0     0
SMALL
bcc


@<TRIPOS>ATOM
      1 C1           0.0000     0.0000     0.0000 cc         1 JP2       0.684100
      2 N1          -0.6520     0.0020    -1.2010 nz         1 JP2      -0.747600
      3 O1           3.2400     0.0000     1.1200 o          1 JP2      -0.451100
      4 C2           2.0210     0.0000     1.1400 c          1 JP2       0.615000
      5 N2           1.3170     0.0000     0.0000 nd         1 JP2      -0.692100
      6 O2          -2.3070     0.0340     5.8920 o          1 JP2      -0.769300
      7 C3           1.2830     0.0090     2.4230 ca         1 JP2       0.186500
      8 N3          -0.7410     0.0030     1.1400 na         1 JP2      -0.777900
      9 O3          -0.3830     0.0420     6.9960 o          1 JP2      -0.769300
     10 C4          -0.1250     0.0080     2.3750 ca         1 JP2       0.501900
     11 N4          -0.8220     0.0160     3.4980 nb         1 JP2      -0.639000
     12 C5          -0.1850     0.0240     4.6650 ca         1 JP2       0.378500
     13 N5           1.9120     0.0180     3.5880 nb         1 JP2      -0.589000
     14 C6           1.2120     0.0250     4.7070 ca         1 JP2       0.324900
     15 C7          -0.9610     0.0340     5.9280 c          1 JP2       0.764100
     16 HN1         -1.2290    -0.8130    -1.2680 hn         1 JP2       0.477133
     17 HN1A         0.0190    -0.0020    -1.9440 hn         1 JP2       0.477133
     18 HN3         -1.7400     0.0020     1.0830 hn         1 JP2       0.463800
     19 H6           1.7230     0.0320     5.6620 h4         1 JP2       0.084100
     20 H13         -1.2210     0.8220    -1.2700 hn         1 JP2       0.477133
@<TRIPOS>BOND
     1     8     1 1
     2     1     5 2
     3     1     2 1
     4     2    16 1
     5     2    17 1
     6     4     3 2
     7     7     4 1
     8     4     5 1
     9     6    15 1
    10    13     7 ar
    11    10     7 ar
    12    10     8 1
    13     8    18 1
    14     9    15 1
    15    11    10 ar
    16    12    11 ar
    17    15    12 1
    18    12    14 ar
    19    14    13 ar
    20    14    19 1
    21    20     2 1
@<TRIPOS>SUBSTRUCTURE
     1 JP2         1 TEMP              0 ****  ****    0 ROOT
