@<TRIPOS>MOLECULE
JP4
   29    30     1     0     0
SMALL
bcc


@<TRIPOS>ATOM
      1 C10          0.0000     0.0000     0.0000 c3         1 JP4       0.106300
      2 C13          1.4650    -1.2340     2.1140 c3         1 JP4       0.213400
      3 C01          2.9650     3.2300    -2.1600 ca         1 JP4      -0.101000
      4 C02          2.1570     3.4510    -1.0600 ca         1 JP4      -0.096000
      5 C03          1.6590     2.3820    -0.3410 ca         1 JP4      -0.134000
      6 C04          1.9710     1.0840    -0.7250 ca         1 JP4       0.002600
      7 C05          2.7830     0.8660    -1.8310 ca         1 JP4      -0.076300
      8 C06          3.2760     1.9390    -2.5450 ca         1 JP4      -0.078000
      9 C07          3.1220    -0.5410    -2.2520 c3         1 JP4       0.287700
     10 O08          3.9630    -0.5020    -3.4070 oh         1 JP4      -0.600800
     11 N09          1.4710     0.0000     0.0000 nh         1 JP4      -0.402000
     12 C11         -0.5050    -1.2330     0.7530 c3         1 JP4       0.213400
     13 O12          0.0350    -1.2330     2.0770 os         1 JP4      -0.411600
     14 C14          1.9910     0.0000     1.3750 c3         1 JP4       0.106300
     15 H102        -0.3610     0.8950     0.4920 h1         1 JP4       0.021950
     16 H101        -0.3610    -0.0280    -1.0210 h1         1 JP4       0.021950
     17 H132         1.7990    -1.2060     3.1440 h1         1 JP4       0.012200
     18 H131         1.8380    -2.1290     1.6320 h1         1 JP4       0.012200
     19 H021         1.9150     4.4630    -0.7610 ha         1 JP4       0.102000
     20 H031         1.0270     2.5550     0.5220 ha         1 JP4       0.112000
     21 H061         3.9090     1.7700    -3.4080 ha         1 JP4       0.127000
     22 H071         3.6410    -1.0440    -1.4450 h1         1 JP4      -0.000800
     23 H072         2.2110    -1.0780    -2.4860 h1         1 JP4      -0.000800
     24 H081         4.1760    -1.3820    -3.6710 ho         1 JP4       0.391000
     25 H111        -0.1850    -2.1290     0.2330 h1         1 JP4       0.012200
     26 H112        -1.5870    -1.2060     0.8050 h1         1 JP4       0.012200
     27 H141         3.0730    -0.0280     1.3500 h1         1 JP4       0.021950
     28 H142         1.6580     0.8950     1.8860 h1         1 JP4       0.021950
     29 H011         3.3540     4.0710    -2.7220 ha         1 JP4       0.103000
@<TRIPOS>BOND
     1     1    11 1   
     2     1    12 1   
     3     1    15 1   
     4     1    16 1   
     5     2    13 1   
     6     2    14 1   
     7     2    17 1   
     8     2    18 1   
     9     3     4 ar  
    10     3     8 ar  
    11     3    29 1   
    12     4     5 ar  
    13     4    19 1   
    14     5     6 ar  
    15     5    20 1   
    16     6     7 ar  
    17     6    11 1   
    18     7     8 ar  
    19     7     9 1   
    20     8    21 1   
    21     9    10 1   
    22     9    22 1   
    23     9    23 1   
    24    10    24 1   
    25    11    14 1   
    26    12    13 1   
    27    12    25 1   
    28    12    26 1   
    29    14    27 1   
    30    14    28 1   
@<TRIPOS>SUBSTRUCTURE
     1 JP4         1 TEMP              0 ****  ****    0 ROOT
