@<TRIPOS>MOLECULE
molecule
   35    38     1     0     0
SMALL
bcc


@<TRIPOS>ATOM
      1 C13          0.0000     0.0000     0.0000 c3         1 JP7       0.150000
      2 C17         -0.9810    -2.6020    -2.6020 c3         1 JP7      -0.166400
      3 C01          7.7590    -2.3560    -2.6910 c3         1 JP7       0.129700
      4 C03          5.9690    -1.5610    -1.3430 ca         1 JP7       0.179100
      5 C04          5.1050    -2.2120    -2.2110 ca         1 JP7      -0.257000
      6 C05          3.7420    -2.1610    -1.9870 ca         1 JP7      -0.040000
      7 C06          3.2400    -1.4680    -0.9070 ca         1 JP7      -0.186300
      8 C07          1.7850    -1.4140    -0.6160 c3         1 JP7       0.179800
      9 C08          1.5250     0.0000     0.0000 c3         1 JP7      -0.154700
     10 C09          2.2490     0.0000     1.3290 c3         1 JP7       0.164400
     11 C11          4.0980    -0.7970    -0.0330 ca         1 JP7       0.191100
     12 C12          5.4690    -0.8580    -0.2610 ca         1 JP7      -0.193000
     13 C18         -1.4470    -1.5040    -1.6650 c          1 JP7       0.725500
     14 N14         -0.3630    -0.9450    -1.0930 n          1 JP7      -0.400200
     15 N15          0.8050    -1.3980    -1.6880 n3         1 JP7      -0.433600
     16 O02          7.3110    -1.6120    -1.5560 os         1 JP7      -0.325900
     17 O10          3.6530    -0.0700     1.0260 os         1 JP7      -0.330900
     18 O19         -2.6000    -1.1850    -1.4640 o          1 JP7      -0.614500
     19 C16          0.5180    -2.7380    -2.2340 c3         1 JP7       0.116800
     20 H132        -0.3150     0.9860    -0.3180 h1         1 JP7       0.070700
     21 H131        -0.3150    -0.4580     0.9300 h1         1 JP7       0.070700
     22 H172        -1.5100    -3.5270    -2.4040 hc         1 JP7       0.083700
     23 H171        -1.0950    -2.2980    -3.6360 hc         1 JP7       0.083700
     24 H011         7.3380    -1.9270    -3.5930 h1         1 JP7       0.043033
     25 H012         8.8400    -2.3170    -2.7440 h1         1 JP7       0.043033
     26 H013         7.4390    -3.3860    -2.5970 h1         1 JP7       0.043033
     27 H041         5.4970    -2.7620    -3.0580 ha         1 JP7       0.138000
     28 H051         3.0660    -2.6690    -2.6630 ha         1 JP7       0.134000
     29 H071         1.5270    -2.1800     0.1060 h1         1 JP7       0.047700
     30 H081         1.9100     0.7760    -0.6510 hc         1 JP7       0.099700
     31 H091         2.0400     0.9250     1.8520 h1         1 JP7       0.065200
     32 H092         1.9600    -0.8770     1.8960 h1         1 JP7       0.065200
     33 H121         6.1490    -0.3520     0.4130 ha         1 JP7       0.159000
     34 H161         0.6630    -3.5020    -1.4800 h1         1 JP7       0.059200
     35 H162         1.1170    -2.9320    -3.1150 h1         1 JP7       0.059200
@<TRIPOS>BOND
     1    18    13 2
     2    13    14 1
     3    13     2 1
     4     1    14 1
     5     1     9 1
     6    14    15 1
     7     2    19 1
     8     9    10 1
     9     9     8 1
    10    15    19 1
    11    15     8 1
    12    10    17 1
    13     8     7 1
    14    17    11 1
    15     7    11 ar
    16     7     6 ar
    17    11    12 ar
    18     6     5 ar
    19    12     4 ar
    20     5     4 ar
    21     4    16 1
    22    16     3 1
    23     1    20 1
    24     1    21 1
    25     2    22 1
    26     2    23 1
    27     3    24 1
    28     3    25 1
    29     3    26 1
    30     5    27 1
    31     6    28 1
    32     8    29 1
    33     9    30 1
    34    10    31 1
    35    10    32 1
    36    12    33 1
    37    19    34 1
    38    19    35 1
@<TRIPOS>SUBSTRUCTURE
     1 JP7         1 TEMP              0 ****  ****    0 ROOT
