@<TRIPOS>MOLECULE
molecule
   37    39     1     0     0
SMALL
bcc


@<TRIPOS>ATOM
      1 ClL2         0.0000     0.0000     0.0000 cl         1 JPA      -0.103400
      2 C4           1.7360     0.0000     0.0000 ca         1 JPA       0.002400
      3 C3           2.4270     0.0000     1.1980 ca         1 JPA      -0.088000
      4 C5           2.4270    -0.0010    -1.1990 ca         1 JPA      -0.085000
      5 C6           3.8090    -0.0020    -1.2020 ca         1 JPA      -0.184000
      6 C1           4.5040    -0.0010    -0.0010 ca         1 JPA       0.130100
      7 C2           3.8090    -0.0050     1.2010 ca         1 JPA       0.007400
      8 ClL1         4.6760    -0.0040     2.7050 cl         1 JPA      -0.084400
      9 O1           5.8630    -0.0030    -0.0020 os         1 JPA      -0.193200
     10 C9           6.2550    -0.1250    -1.2980 ca         1 JPA       0.052100
     11 C8           6.4010     1.0120    -2.0910 ca         1 JPA       0.101100
     12 O2           6.1510     2.2420    -1.5680 oh         1 JPA      -0.504100
     13 C7           6.8050     0.8880    -3.4080 ca         1 JPA      -0.160000
     14 C12          7.0540    -0.3750    -3.9420 cp         1 JPA      -0.011000
     15 C11          6.9080    -1.5080    -3.1440 ca         1 JPA      -0.125000
     16 C10          6.5100    -1.3800    -1.8290 ca         1 JPA      -0.119000
     17 C17          7.4800    -0.5110    -5.3560 cp         1 JPA      -0.052000
     18 C18          6.7630    -1.3280    -6.2270 ca         1 JPA      -0.065300
     19 C23          5.5460    -2.0690    -5.7370 c3         1 JPA      -0.050800
     20 C19          7.1640    -1.4510    -7.5430 ca         1 JPA      -0.127000
     21 C20          8.2810    -0.7700    -7.9940 ca         1 JPA      -0.118000
     22 C21          9.0010     0.0380    -7.1320 ca         1 JPA      -0.133000
     23 C22          8.6080     0.1680    -5.8160 ca         1 JPA      -0.109000
     24 H3           1.8840    -0.0030     2.1360 ha         1 JPA       0.160000
     25 H5           1.8840    -0.0020    -2.1360 ha         1 JPA       0.148000
     26 H6           4.3490    -0.0010    -2.1410 ha         1 JPA       0.163000
     27 HO2          6.9540     2.7360    -1.5290 ho         1 JPA       0.427000
     28 H7           6.9180     1.7710    -4.0260 ha         1 JPA       0.151000
     29 H11          7.1030    -2.4900    -3.5580 ha         1 JPA       0.147000
     30 H10          6.3970    -2.2620    -1.2100 ha         1 JPA       0.153000
     31 H231         4.9560    -2.3950    -6.5850 hc         1 JPA       0.046033
     32 H232         5.8570    -2.9320    -5.1610 hc         1 JPA       0.046033
     33 H233         4.9510    -1.4140    -5.1130 hc         1 JPA       0.046033
     34 H19          6.6060    -2.0840    -8.2220 ha         1 JPA       0.134000
     35 H20          8.5920    -0.8700    -9.0270 ha         1 JPA       0.132000
     36 H21          9.8760     0.5670    -7.4900 ha         1 JPA       0.133000
     37 H22          9.1720     0.8010    -5.1410 ha         1 JPA       0.134000
@<TRIPOS>BOND
     1     1     2 1
     2     2     3 ar
     3     2     4 ar
     4     3     7 ar
     5     3    24 1
     6     4     5 ar
     7     4    25 1
     8     5     6 ar
     9     5    26 1
    10     6     7 ar
    11     6     9 1
    12     7     8 1
    13     9    10 1
    14    10    11 ar
    15    10    16 ar
    16    11    12 1
    17    11    13 ar
    18    12    27 1
    19    13    14 ar
    20    13    28 1
    21    14    15 ar
    22    14    17 1
    23    15    16 ar
    24    15    29 1
    25    16    30 1
    26    17    18 ar
    27    17    23 ar
    28    18    19 1
    29    18    20 ar
    30    19    31 1
    31    19    32 1
    32    19    33 1
    33    20    21 ar
    34    20    34 1
    35    21    22 ar
    36    21    35 1
    37    22    23 ar
    38    22    36 1
    39    23    37 1
@<TRIPOS>SUBSTRUCTURE
     1 JPA         1 TEMP              0 ****  ****    0 ROOT
