@<TRIPOS>MOLECULE
JPA
   37    39     1     0     0
SMALL
bcc


@<TRIPOS>ATOM
      1 CLL2       -0.0860    0.1570    1.1830 cl        1 JPA     -0.089400
      2 C4          1.5590    0.1060    0.7590 ca        1 JPA     -0.009600
      3 C3          2.5280    0.0670    1.7650 ca        1 JPA     -0.096000
      4 C5          1.9300    0.1050   -0.5890 ca        1 JPA     -0.092000
      5 C6          3.2770    0.0630   -0.9320 ca        1 JPA     -0.174000
      6 C1          4.2570    0.0210    0.0680 ca        1 JPA      0.136100
      7 C2          3.8830    0.0220    1.4280 ca        1 JPA     -0.002600
      8 CLL1        5.0290   -0.0280    2.6790 cl        1 JPA     -0.063400
      9 O1          5.6190   -0.0130   -0.1990 os        1 JPA     -0.218200
     10 C9          5.9840   -0.1470   -1.5370 ca        1 JPA      0.045100
     11 C8          6.2780    0.9950   -2.3100 ca        1 JPA      0.127100
     12 O2          6.0180    2.2220   -1.7540 oh        1 JPA     -0.476100
     13 C7          6.8090    0.8450   -3.5990 ca        1 JPA     -0.204000
     14 C12         7.0360   -0.4350   -4.1190 cp        1 JPA      0.013000
     15 C11         6.7340   -1.5640   -3.3440 ca        1 JPA     -0.149000
     16 C10         6.2140   -1.4240   -2.0610 ca        1 JPA     -0.096000
     17 C17         7.6150   -0.5750   -5.4580 cp        1 JPA     -0.052000
     18 C18         7.0210   -1.3730   -6.4510 ca        1 JPA     -0.055300
     19 C23         5.7640   -2.1220   -6.2120 c3        1 JPA     -0.059800
     20 C19         7.6310   -1.4650   -7.7100 ca        1 JPA     -0.134000
     21 C20         8.8110   -0.7810   -7.9840 ca        1 JPA     -0.118000
     22 C21         9.3980    0.0150   -6.9990 ca        1 JPA     -0.135000
     23 C22         8.8000    0.1190   -5.7470 ca        1 JPA     -0.113000
     24 H3          2.2280    0.0700    2.8260 ha        1 JPA      0.162000
     25 H5          1.1630    0.1400   -1.3780 ha        1 JPA      0.151000
     26 H6          3.5770    0.0700   -1.9910 ha        1 JPA      0.154000
     27 HO2         6.3160    2.9010   -2.3780 ho        1 JPA      0.422000
     28 H7          7.0480    1.7340   -4.2010 ha        1 JPA      0.144000
     29 H11         6.9200   -2.5680   -3.7530 ha        1 JPA      0.146000
     30 H10         5.9900   -2.3080   -1.4440 ha        1 JPA      0.154000
     31 H231        5.1460   -1.6360   -5.4180 hc        1 JPA      0.048367
     32 H232        5.9990   -3.1660   -5.8830 hc        1 JPA      0.048367
     33 H233        5.1550   -2.1810   -7.1480 hc        1 JPA      0.048367
     34 H19         7.1650   -2.0880   -8.4890 ha        1 JPA      0.134000
     35 H20         9.2790   -0.8660   -8.9750 ha        1 JPA      0.134000
     36 H21        10.3300    0.5580   -7.2110 ha        1 JPA      0.135000
     37 H22         9.2620    0.7440   -4.9680 ha        1 JPA      0.136000
@<TRIPOS>BOND
     1    1    2 1   
     2    2    3 ar  
     3    2    4 ar  
     4    3    7 ar  
     5    3   24 1   
     6    4    5 ar  
     7    4   25 1   
     8    5    6 ar  
     9    5   26 1   
    10    6    7 ar  
    11    6    9 1   
    12    7    8 1   
    13    9   10 1   
    14   10   11 ar  
    15   10   16 ar  
    16   11   12 1   
    17   11   13 ar  
    18   12   27 1   
    19   13   14 ar  
    20   13   28 1   
    21   14   15 ar  
    22   14   17 1   
    23   15   16 ar  
    24   15   29 1   
    25   16   30 1   
    26   17   18 ar  
    27   17   23 ar  
    28   18   19 1   
    29   18   20 ar  
    30   19   31 1   
    31   19   32 1   
    32   19   33 1   
    33   20   21 ar  
    34   20   34 1   
    35   21   22 ar  
    36   21   35 1   
    37   22   23 ar  
    38   22   36 1   
    39   23   37 1   
@<TRIPOS>SUBSTRUCTURE
     1 JPA         1 TEMP              0 ****  ****    0 ROOT
