@<TRIPOS>MOLECULE
molecule
   44    46     1     0     0
SMALL
bcc


@<TRIPOS>ATOM
      1 N1           0.0000     0.0000     0.0000 n          1 JPC      -0.350000
      2 C2           1.4650     0.0000     0.0000 c3         1 JPC       0.135700
      3 C3           1.9760     0.0000     1.4410 c3         1 JPC      -0.111600
      4 C4           1.9740    -1.2510    -0.7210 c3         1 JPC      -0.111600
      5 C5          -0.6740    -0.9010     0.7420 c          1 JPC       0.713700
      6 O6          -0.0790    -1.8180     1.2740 o          1 JPC      -0.620100
      7 C7          -2.1360    -0.7730     0.9110 ca         1 JPC      -0.094600
      8 C8          -2.9380    -0.4190    -0.1750 ca         1 JPC      -0.085000
      9 C9          -4.3010    -0.3010    -0.0120 ca         1 JPC      -0.135000
     10 C10         -4.8770    -0.5340     1.2280 ca         1 JPC       0.051400
     11 C11         -4.0880    -0.8870     2.3090 ca         1 JPC      -0.132000
     12 C12         -2.7210    -1.0130     2.1570 ca         1 JPC       0.111400
     13 Cl13        -6.5950    -0.3840     1.4250 cl         1 JPC      -0.134400
     14 Cl14        -1.7330    -1.4550     3.5140 cl         1 JPC      -0.076400
     15 C15         -0.6980     0.9320    -0.7670 cc         1 JPC      -0.060400
     16 C16         -1.3750     1.9930    -0.1620 cd         1 JPC       0.067300
     17 S17         -2.0660     2.8450    -1.5700 ss         1 JPC      -0.140800
     18 C18         -1.4440     1.7740    -2.8540 cd         1 JPC      -0.049100
     19 C19         -0.7400     0.8270    -2.1350 cc         1 JPC      -0.162000
     20 C20         -1.4810     2.3120     1.2100 c          1 JPC       0.891200
     21 O21         -2.1830     3.3980     1.5980 o          1 JPC      -0.806800
     22 O22         -0.9390     1.6090     2.0410 o          1 JPC      -0.806800
     23 C23         -1.6340     1.8760    -4.3160 ca         1 JPC       0.038000
     24 C24         -0.5760     1.5950    -5.1810 ca         1 JPC      -0.122500
     25 C25         -0.7610     1.6860    -6.5460 ca         1 JPC      -0.132000
     26 C26         -1.9890     2.0650    -7.0560 ca         1 JPC      -0.146000
     27 C27         -3.0410     2.3490    -6.2040 ca         1 JPC      -0.132000
     28 C28         -2.8720     2.2560    -4.8380 ca         1 JPC      -0.122500
     29 H2           1.8260     0.8840    -0.5110 h1         1 JPC       0.054700
     30 H31          3.0360     0.2240     1.4490 hc         1 JPC       0.043367
     31 H32          1.8090    -0.9750     1.8830 hc         1 JPC       0.043367
     32 H33          1.4440     0.7510     2.0130 hc         1 JPC       0.043367
     33 H41          2.3490    -1.9600     0.0080 hc         1 JPC       0.043367
     34 H42          2.7710    -0.9760    -1.4010 hc         1 JPC       0.043367
     35 H43          1.1620    -1.7020    -1.2790 hc         1 JPC       0.043367
     36 H8          -2.5020    -0.3320    -1.1630 ha         1 JPC       0.154000
     37 H9          -4.9260    -0.0330    -0.8550 ha         1 JPC       0.137000
     38 H11         -4.5430    -1.0680     3.2750 ha         1 JPC       0.147000
     39 H19         -0.2310     0.0160    -2.6420 ha         1 JPC       0.133000
     40 H24          0.3870     1.2980    -4.7830 ha         1 JPC       0.138000
     41 H25          0.0590     1.4670    -7.2190 ha         1 JPC       0.121000
     42 H26         -2.1290     2.1370    -8.1280 ha         1 JPC       0.117000
     43 H27         -4.0010     2.6450    -6.6100 ha         1 JPC       0.121000
     44 H28         -3.6960     2.4790    -4.1720 ha         1 JPC       0.138000
@<TRIPOS>BOND
     1     1     2 1
     2     1     5 1
     3     1    15 1
     4     2     3 1
     5     2     4 1
     6     2    29 1
     7     3    30 1
     8     3    31 1
     9     3    32 1
    10     4    33 1
    11     4    34 1
    12     4    35 1
    13     5     6 2
    14     5     7 1
    15     7     8 ar
    16     7    12 ar
    17     8     9 ar
    18     8    36 1
    19     9    10 ar
    20     9    37 1
    21    10    11 ar
    22    10    13 1
    23    11    12 ar
    24    11    38 1
    25    12    14 1
    26    15    16 2
    27    15    19 1
    28    16    17 1
    29    16    20 1
    30    17    18 1
    31    18    19 2
    32    18    23 1
    33    19    39 1
    34    20    21 1
    35    20    22 1
    36    23    24 ar
    37    23    28 ar
    38    24    25 ar
    39    24    40 1
    40    25    26 ar
    41    25    41 1
    42    26    27 ar
    43    26    42 1
    44    27    28 ar
    45    27    43 1
    46    28    44 1
@<TRIPOS>SUBSTRUCTURE
     1 JPC         1 TEMP              0 ****  ****    0 ROOT
