@<TRIPOS>MOLECULE
JPD
   38    39     1     0     0
SMALL
bcc


@<TRIPOS>ATOM
      1 C10          0.0000     0.0000     0.0000 c3         1 JPD       0.167800
      2 C13          0.0220    -1.2380     2.1790 c3         1 JPD      -0.031900
      3 C17          0.1180     3.2210     5.1220 c3         1 JPD       0.282700
      4 C03          0.0140     2.5120     0.0180 c3         1 JPD       0.177100
      5 O04         -0.5580     2.5890    -1.2880 oh         1 JPD      -0.562800
      6 C05         -0.5010     1.2570     0.7270 c3         1 JPD       0.047700
      7 N06          0.0380     1.1960     2.1010 n          1 JPD      -0.128800
      8 C07          0.8710     0.0170     2.4140 c3         1 JPD       0.029700
      9 C08          2.0530     0.0000     1.4370 c3         1 JPD      -0.031900
     10 C09          1.5300     0.0000     0.0000 c3         1 JPD      -0.060900
     11 O11         -0.4810     0.0000    -1.3460 oh         1 JPD      -0.554800
     12 C12         -0.5030    -1.2400     0.7430 c3         1 JPD      -0.060900
     13 C14         -0.2130     2.1570     3.0120 c          1 JPD       0.687100
     14 O15         -1.0320     3.0230     2.7710 o          1 JPD      -0.636000
     15 O16          0.4410     2.1570     4.1880 os         1 JPD      -0.429900
     16 H132         0.6290    -2.1200     2.3430 hc         1 JPD       0.023200
     17 H131        -0.8140    -1.2420     2.8690 hc         1 JPD       0.023200
     18 H171         0.6490     3.0580     6.0520 h1         1 JPD       0.000700
     19 H172         0.4150     4.1740     4.6990 h1         1 JPD       0.000700
     20 H173        -0.9480     3.2260     5.3100 h1         1 JPD       0.000700
     21 H013        -0.0060     5.8640     0.7080 hc         1 JPD      -0.003300
     22 H011         0.9800     4.9010    -0.4010 hc         1 JPD      -0.003300
     23 H012        -0.7370     5.1610    -0.7420 hc         1 JPD      -0.003300
     24 H031         1.0930     2.4640    -0.0620 h1         1 JPD       0.002700
     25 H041         0.1020     2.8570    -1.9050 ho         1 JPD       0.385000
     26 H051        -1.5840     1.2640     0.7530 h1         1 JPD       0.063700
     27 H071         1.2210     0.0570     3.4380 h1         1 JPD       0.055700
     28 H081         2.6470    -0.8900     1.6050 hc         1 JPD       0.023200
     29 H082         2.6670     0.8780     1.5980 hc         1 JPD       0.023200
     30 H092         1.8900     0.8840    -0.5130 hc         1 JPD       0.026200
     31 H091         1.8900    -0.8840    -0.5130 hc         1 JPD       0.026200
     32 H111        -0.4010    -0.8660    -1.7080 ho         1 JPD       0.386000
     33 H121        -0.1530    -2.1300     0.2350 hc         1 JPD       0.026200
     34 H122        -1.5860    -1.2360     0.7570 hc         1 JPD       0.026200
     35 C02         -0.3830     3.7520     0.8230 c3         1 JPD      -0.113400
     36 H021        -1.4530     3.7430     0.9960 hc         1 JPD       0.064700
     37 C01         -0.0030     5.0100     0.0410 c3         1 JPD       0.006900
     38 H022         0.1360     3.7470     1.7740 hc         1 JPD       0.064700
@<TRIPOS>BOND
     1     1     6 1   
     2     1    10 1   
     3     1    11 1   
     4     1    12 1   
     5     2     8 1   
     6     2    12 1   
     7     2    16 1   
     8     2    17 1   
     9     3    15 1   
    10     3    18 1   
    11     3    19 1   
    12     3    20 1   
    13     4     5 1   
    14     4     6 1   
    15     4    24 1   
    16     4    35 1   
    17     5    25 1   
    18     6     7 1   
    19     6    26 1   
    20     7     8 1   
    21     7    13 1   
    22     8     9 1   
    23     8    27 1   
    24     9    10 1   
    25     9    28 1   
    26     9    29 1   
    27    10    30 1   
    28    10    31 1   
    29    11    32 1   
    30    12    33 1   
    31    12    34 1   
    32    13    14 2   
    33    13    15 1   
    34    21    37 1   
    35    22    37 1   
    36    23    37 1   
    37    35    36 1   
    38    35    37 1   
    39    35    38 1   
@<TRIPOS>SUBSTRUCTURE
     1 JPD         1 TEMP              0 ****  ****    0 ROOT
