@<TRIPOS>MOLECULE
molecule
   28    29     1     0     0
SMALL
bcc


@<TRIPOS>ATOM
      1 C13          0.0000     0.0000     0.0000 ca         1 JPG      -0.121000
      2 C15         -0.0050     0.0030     2.3970 ca         1 JPG      -0.121000
      3 C01          7.7650    -0.0770     1.2310 c3         1 JPG      -0.191100
      4 O03          5.6990     1.0620     1.2170 o          1 JPG      -0.507100
      5 C04          5.4730    -1.2520     1.2200 ca         1 JPG      -0.208600
      6 C05          6.1160    -2.4950     1.2320 ca         1 JPG      -0.060000
      7 C06          5.3700    -3.6530     1.2300 ca         1 JPG      -0.180000
      8 C07          3.9860    -3.5950     1.2160 ca         1 JPG      -0.064000
      9 C08          3.3370    -2.3750     1.2040 ca         1 JPG      -0.227000
     10 C09          4.0690    -1.1980     1.2120 ca         1 JPG       0.194100
     11 O10          3.4330    -0.0010     1.2060 os         1 JPG      -0.212200
     12 C11          2.0740     0.0000     1.2030 ca         1 JPG       0.092100
     13 C12          1.3810     0.0000     0.0000 ca         1 JPG      -0.134000
     14 C14         -0.6930     0.0020     1.1970 ca         1 JPG      -0.128000
     15 C16          1.3770     0.0020     2.4020 ca         1 JPG      -0.134000
     16 H131        -0.5410    -0.0000    -0.9380 ha         1 JPG       0.135000
     17 H151        -0.5490     0.0040     3.3330 ha         1 JPG       0.135000
     18 H011         8.1090    -0.6070     0.3510 hc         1 JPG       0.059033
     19 H012         8.1070    -0.5940     2.1200 hc         1 JPG       0.059033
     20 H013         8.1630     0.9300     1.2240 hc         1 JPG       0.059033
     21 H051         7.1980    -2.5460     1.2430 ha         1 JPG       0.138000
     22 H061         5.8690    -4.6150     1.2390 ha         1 JPG       0.134000
     23 H071         3.4080    -4.5110     1.2110 ha         1 JPG       0.134000
     24 H081         2.2540    -2.3390     1.1950 ha         1 JPG       0.150000
     25 H121         1.9230    -0.0020    -0.9380 ha         1 JPG       0.146000
     26 H141        -1.7760     0.0020     1.1950 ha         1 JPG       0.133000
     27 H161         1.9150     0.0030     3.3420 ha         1 JPG       0.146000
     28 C02          6.2590    -0.0130     1.2220 c          1 JPG       0.572700
@<TRIPOS>BOND
     1     3    28 1
     2     4    28 2
     3    28     5 1
     4     6     5 ar
     5     6     7 ar
     6     5    10 ar
     7     1    13 ar
     8     1    14 ar
     9    13    12 ar
    10     7     8 ar
    11    10    11 1
    12    10     9 ar
    13    14     2 ar
    14     8     9 ar
    15    12    11 1
    16    12    15 ar
    17     2    15 ar
    18     1    16 1
    19     2    17 1
    20     3    18 1
    21     3    19 1
    22     3    20 1
    23     6    21 1
    24     7    22 1
    25     8    23 1
    26     9    24 1
    27    13    25 1
    28    14    26 1
    29    15    27 1
@<TRIPOS>SUBSTRUCTURE
     1 JPG         1 TEMP              0 ****  ****    0 ROOT
