@<TRIPOS>MOLECULE
molecule
   40    42     1     0     0
SMALL
bcc


@<TRIPOS>ATOM
      1 Cl20         0.0000     0.0000     0.0000 cl         1 JPJ      -0.075400
      2 C15          1.7260     0.0000     0.0000 ca         1 JPJ       0.020400
      3 C16          2.4030     0.0000     1.2190 ca         1 JPJ      -0.108000
      4 C17          3.7970    -0.0010     1.2420 ca         1 JPJ       0.017400
      5 Cl21         4.6340    -0.0010     2.7460 cl         1 JPJ      -0.089400
      6 C22          4.5150    -0.0000     0.0450 ca         1 JPJ      -0.108000
      7 C19          3.8370     0.0000    -1.1730 ca         1 JPJ      -0.134000
      8 C14          2.4520     0.0000    -1.1780 ca         1 JPJ       0.118100
      9 O13          1.8070     0.0010    -2.4030 os         1 JPJ      -0.244200
     10 C2           2.0460     1.0460    -3.2430 ca         1 JPJ       0.086100
     11 C1           2.5950     0.8290    -4.5060 ca         1 JPJ       0.101100
     12 O22          2.9010    -0.4340    -4.9190 oh         1 JPJ      -0.510100
     13 C3           1.7360     2.3420    -2.8310 ca         1 JPJ      -0.142000
     14 C4           1.9760     3.4210    -3.6820 ca         1 JPJ      -0.120000
     15 C5           2.5240     3.1890    -4.9350 ca         1 JPJ      -0.074300
     16 C6           2.8360     1.9060    -5.3570 ca         1 JPJ      -0.151000
     17 C7           2.7830     4.3560    -5.8560 c3         1 JPJ      -0.032100
     18 C18          4.1900     4.9630    -5.6830 c3         1 JPJ      -0.031100
     19 C28          4.4600     6.1320    -6.5690 ca         1 JPJ      -0.083300
     20 C27          5.0130     5.9350    -7.8340 ca         1 JPJ      -0.124000
     21 C26          5.2660     7.0270    -8.6640 ca         1 JPJ      -0.127000
     22 C25          4.9670     8.3180    -8.2270 ca         1 JPJ      -0.130000
     23 C24          4.4140     8.5160    -6.9610 ca         1 JPJ      -0.127000
     24 C23          4.1610     7.4220    -6.1330 ca         1 JPJ      -0.124000
     25 H16          1.8460    -0.0250     2.1480 ha         1 JPJ       0.161000
     26 H22          5.5980    -0.0000     0.0630 ha         1 JPJ       0.152000
     27 H19          4.3880     0.0000    -2.1060 ha         1 JPJ       0.165000
     28 HO22         2.2950    -0.7010    -5.5900 ho         1 JPJ       0.423000
     29 H3           1.3090     2.5110    -1.8500 ha         1 JPJ       0.149000
     30 H4           1.7380     4.4300    -3.3670 ha         1 JPJ       0.141000
     31 H6           3.2630     1.7430    -6.3390 ha         1 JPJ       0.147000
     32 H71          2.0460     5.1250    -5.6580 hc         1 JPJ       0.051200
     33 H72          2.6720     4.0220    -6.8800 hc         1 JPJ       0.051200
     34 H181         4.9250     4.1950    -5.8930 hc         1 JPJ       0.049700
     35 H182         4.3050     5.2780    -4.6530 hc         1 JPJ       0.049700
     36 H27          5.2450     4.9320    -8.1730 ha         1 JPJ       0.130000
     37 H26          5.6950     6.8740    -9.6470 ha         1 JPJ       0.131000
     38 H25          5.1630     9.1670    -8.8710 ha         1 JPJ       0.130000
     39 H24          4.1810     9.5180    -6.6220 ha         1 JPJ       0.131000
     40 H23          3.7310     7.5750    -5.1500 ha         1 JPJ       0.130000
@<TRIPOS>BOND
     1     1     2 1
     2     2     3 ar
     3     2     8 ar
     4     3     4 ar
     5     3    25 1
     6     4     5 1
     7     4     6 ar
     8     6     7 ar
     9     6    26 1
    10     7     8 ar
    11     7    27 1
    12     8     9 1
    13     9    10 1
    14    10    11 ar
    15    10    13 ar
    16    11    12 1
    17    11    16 ar
    18    12    28 1
    19    13    14 ar
    20    13    29 1
    21    14    15 ar
    22    14    30 1
    23    15    16 ar
    24    15    17 1
    25    16    31 1
    26    17    18 1
    27    17    32 1
    28    17    33 1
    29    18    19 1
    30    18    34 1
    31    18    35 1
    32    19    20 ar
    33    19    24 ar
    34    20    21 ar
    35    20    36 1
    36    21    22 ar
    37    21    37 1
    38    22    23 ar
    39    22    38 1
    40    23    24 ar
    41    23    39 1
    42    24    40 1
@<TRIPOS>SUBSTRUCTURE
     1 JPJ         1 TEMP              0 ****  ****    0 ROOT
