@<TRIPOS>MOLECULE
JPJ
   40    42     1     0     0
SMALL
bcc


@<TRIPOS>ATOM
      1 CL20        0.2030   -1.3510   -0.2930 cl        1 JPJ     -0.060400
      2 C15         1.7500   -0.6770   -0.1180 ca        1 JPJ      0.000400
      3 C16         2.4530   -0.9120    1.0670 ca        1 JPJ     -0.099000
      4 C17         3.7280   -0.3690    1.2410 ca        1 JPJ     -0.002600
      5 CL21        4.5700   -0.6580    2.6870 cl        1 JPJ     -0.082400
      6 C22         4.3160    0.4080    0.2380 ca        1 JPJ     -0.094000
      7 C19         3.6250    0.6430   -0.9460 ca        1 JPJ     -0.168000
      8 C14         2.3460    0.1030   -1.1300 ca        1 JPJ      0.117100
      9 O13         1.6240    0.2560   -2.3080 os        1 JPJ     -0.244200
     10 C2          2.0200    1.3050   -3.1400 ca        1 JPJ     -0.011900
     11 C1          2.4170    0.9660   -4.4470 ca        1 JPJ      0.138100
     12 O22         2.5340   -0.3300   -4.8810 oh        1 JPJ     -0.489100
     13 C3          1.8990    2.6450   -2.7580 ca        1 JPJ     -0.101000
     14 C4          2.1850    3.6430   -3.6820 ca        1 JPJ     -0.155000
     15 C5          2.5870    3.3190   -4.9870 ca        1 JPJ     -0.043300
     16 C6          2.7010    1.9830   -5.3730 ca        1 JPJ     -0.152000
     17 C7          2.8780    4.4060   -5.9630 c3        1 JPJ     -0.039100
     18 C18         4.1920    5.1040   -5.6450 c3        1 JPJ     -0.033100
     19 C28         4.4790    6.1900   -6.6210 ca        1 JPJ     -0.082300
     20 C27         4.9160    5.8750   -7.9140 ca        1 JPJ     -0.126500
     21 C26         5.1950    6.8890   -8.8290 ca        1 JPJ     -0.127500
     22 C25         5.0420    8.2260   -8.4600 ca        1 JPJ     -0.130000
     23 C24         4.6090    8.5450   -7.1730 ca        1 JPJ     -0.127500
     24 C23         4.3290    7.5320   -6.2570 ca        1 JPJ     -0.126500
     25 H16         1.9960   -1.5230    1.8630 ha        1 JPJ      0.165000
     26 H22         5.3230    0.8320    0.3790 ha        1 JPJ      0.155000
     27 H19         4.0790    1.2550   -1.7410 ha        1 JPJ      0.159000
     28 HO22        2.2670   -0.9140   -4.1520 ho        1 JPJ      0.439000
     29 H3          1.5780    2.8920   -1.7350 ha        1 JPJ      0.150000
     30 H4          2.0910    4.7000   -3.3910 ha        1 JPJ      0.140000
     31 H6          3.0060    1.7070   -6.3930 ha        1 JPJ      0.156000
     32 H71         2.0420    5.1560   -5.9400 hc        1 JPJ      0.057700
     33 H72         2.9240    3.9900   -7.0050 hc        1 JPJ      0.057700
     34 H181        4.1460    5.5200   -4.6030 hc        1 JPJ      0.052200
     35 H182        5.0260    4.3520   -5.6670 hc        1 JPJ      0.052200
     36 H27         5.0380    4.8220   -8.2060 ha        1 JPJ      0.130500
     37 H26         5.5370    6.6340   -9.8420 ha        1 JPJ      0.131500
     38 H25         5.2630    9.0250   -9.1820 ha        1 JPJ      0.132000
     39 H24         4.4880    9.5980   -6.8790 ha        1 JPJ      0.131500
     40 H23         3.9890    7.7900   -5.2430 ha        1 JPJ      0.130500
@<TRIPOS>BOND
     1    1    2 1   
     2    2    3 ar  
     3    2    8 ar  
     4    3    4 ar  
     5    3   25 1   
     6    4    5 1   
     7    4    6 ar  
     8    6    7 ar  
     9    6   26 1   
    10    7    8 ar  
    11    7   27 1   
    12    8    9 1   
    13    9   10 1   
    14   10   11 ar  
    15   10   13 ar  
    16   11   12 1   
    17   11   16 ar  
    18   12   28 1   
    19   13   14 ar  
    20   13   29 1   
    21   14   15 ar  
    22   14   30 1   
    23   15   16 ar  
    24   15   17 1   
    25   16   31 1   
    26   17   18 1   
    27   17   32 1   
    28   17   33 1   
    29   18   19 1   
    30   18   34 1   
    31   18   35 1   
    32   19   20 ar  
    33   19   24 ar  
    34   20   21 ar  
    35   20   36 1   
    36   21   22 ar  
    37   21   37 1   
    38   22   23 ar  
    39   22   38 1   
    40   23   24 ar  
    41   23   39 1   
    42   24   40 1   
@<TRIPOS>SUBSTRUCTURE
     1 JPJ         1 TEMP              0 ****  ****    0 ROOT
