@<TRIPOS>MOLECULE
JPL
   39    38     1     0     0
SMALL
bcc


@<TRIPOS>ATOM
      1 C2         -0.6310    0.8420    0.5090 ca        1 JPL      0.079000
      2 C3          0.6250    0.3950    0.0510 ca        1 JPL      0.013000
      3 C4          1.4910   -0.2650    0.9290 ca        1 JPL     -0.095000
      4 C5          1.1050   -0.4890    2.2480 ca        1 JPL     -0.158000
      5 C7          3.0520    1.4730   -2.0020 ca        1 JPL     -0.063000
      6 C8          1.7010    1.6130   -1.6420 ca        1 JPL      0.054000
      7 C9          1.0660    2.8590   -1.7400 ca        1 JPL     -0.123000
      8 C10         1.7730    3.9650   -2.1990 ca        1 JPL     -0.116000
      9 C11         3.1170    3.8240   -2.5620 ca        1 JPL     -0.061000
     10 C12         3.7590    2.5870   -2.4700 ca        1 JPL     -0.118000
     11 C15        -0.6850    3.3610    7.2750 c1        1 JPL     -0.140000
     12 C16         1.2440    2.5160    5.8460 c1        1 JPL      0.194000
     13 C19        -1.3740    1.3430    5.7870 c2        1 JPL     -0.103000
     14 O2         -1.4360    1.5170   -0.3770 oh        1 JPL     -0.248000
     15 C1         -1.0140    0.6060    1.8370 ca        1 JPL     -0.199000
     16 C6         -0.1450   -0.0580    2.7070 ca        1 JPL     -0.030000
     17 C13        -0.3740    0.8570    5.0050 c2        1 JPL      0.011000
     18 C14        -1.0840    2.4340    6.6200 c1        1 JPL     -0.154000
     19 C17         0.9300    1.4870    5.0650 c2        1 JPL     -0.448000
     20 O1          0.9520    0.4840   -1.3030 os        1 JPL     -0.147000
     21 CL5         3.9830    5.1730   -3.1230 cl        1 JPL     -0.006000
     22 H4          1.7890   -1.0150    2.9310 ha        1 JPL      0.139000
     23 H5          2.4690   -0.6100    0.5590 ha        1 JPL      0.156000
     24 H9          0.0020    2.9410   -1.4570 ha        1 JPL      0.172000
     25 H10         1.2740    4.9430   -2.2780 ha        1 JPL      0.153000
     26 H12         4.8160    2.4850   -2.7620 ha        1 JPL      0.163000
     27 H15        -2.2410    3.2700   -1.8140 ha        1 JPL      0.002000
     28 H15A       -2.5530    3.5150   -1.2640 ha        1 JPL      0.002000
     29 H16        -0.3660    4.1820    7.8680 ha        1 JPL      0.234000
     30 H18        -1.6390   -0.6420    4.1280 hc        1 JPL      0.104500
     31 H18A        0.0450   -1.1750    4.5330 hc        1 JPL      0.104500
     32 H19        -2.3890    0.9210    5.7990 ha        1 JPL      0.153000
     33 HO2        -2.3030    1.6450    0.0410 ho        1 JPL      0.225000
     34 H1         -1.9960    0.9530    2.1910 ha        1 JPL      0.141000
     35 H14        -3.4080    3.3100    0.8510 ha        1 JPL      0.002000
     36 H14A       -3.3760    2.9150    1.4000 ha        1 JPL      0.002000
     37 H17         1.7090    1.0740    4.3910 ha        1 JPL      0.191000
     38 C18        -0.5600   -0.3220    4.1150 c3        1 JPL     -0.095000
     39 CL1         3.8600   -0.0170   -1.9000 cl        1 JPL      0.007000
@<TRIPOS>BOND
     1    1    2 1   
     2    1   14 1   
     3    1   15 1   
     4    2    3 1   
     5    2   20 1   
     6    3    4 1   
     7    3   23 1   
     8    4   16 1   
     9    4   22 1   
    10    5    6 1   
    11    5   10 1   
    12    5   39 1   
    13    6    7 1   
    14    6   20 1   
    15    7    8 1   
    16    7   24 1   
    17    8    9 1   
    18    8   25 1   
    19    9   10 1   
    20    9   21 1   
    21   10   26 1   
    22   11   18 1   
    23   11   29 1   
    24   12   19 1   
    25   13   17 1   
    26   13   18 1   
    27   13   32 1   
    28   14   33 1   
    29   15   16 1   
    30   15   34 1   
    31   16   38 1   
    32   17   19 1   
    33   17   38 1   
    34   19   37 1   
    35   27   28 1   
    36   30   38 1   
    37   31   38 1   
    38   35   36 1   
@<TRIPOS>SUBSTRUCTURE
     1 JPL         1 TEMP              0 ****  ****    0 ROOT
