@<TRIPOS>MOLECULE
molecule
   43    45     1     0     0
SMALL
bcc


@<TRIPOS>ATOM
      1 C2           0.0000     0.0000     0.0000 ca         1 JPL       0.102100
      2 C3           1.3920     0.0000     0.0000 ca         1 JPL       0.068100
      3 C4           2.0820     0.0000     1.2020 ca         1 JPL      -0.114000
      4 C5           1.3870    -0.0000     2.3970 ca         1 JPL      -0.133000
      5 C7           2.8150     1.2160    -3.0830 ca         1 JPL       0.007400
      6 C8           2.2310     1.1840    -1.8250 ca         1 JPL       0.154100
      7 C9           1.8060     2.3620    -1.2280 ca         1 JPL      -0.185000
      8 C10          1.9670     3.5650    -1.8880 ca         1 JPL      -0.085000
      9 C11          2.5500     3.5960    -3.1420 ca         1 JPL      -0.000600
     10 C12          2.9790     2.4220    -3.7370 ca         1 JPL      -0.086000
     11 C15         -2.8390     3.5730     4.9650 c3         1 JPL      -0.080400
     12 C16         -2.1870     3.5710     3.5810 c3         1 JPL      -0.078400
     13 C19         -1.6540     1.4470     5.5280 c3         1 JPL      -0.077400
     14 O2          -0.6820    -0.0010    -1.1770 oh         1 JPL      -0.508100
     15 C1          -0.6900    -0.0050     1.2010 ca         1 JPL      -0.166000
     16 C6           0.0050     0.0000     2.3960 ca         1 JPL      -0.057300
     17 C13         -1.0020     1.4440     4.1440 c3         1 JPL      -0.065700
     18 C14         -1.9080     2.8900     5.9690 c3         1 JPL      -0.078400
     19 C17         -1.9320     2.1280     3.1400 c3         1 JPL      -0.077400
     20 O1           2.0740    -0.0010    -1.1770 os         1 JPL      -0.226200
     21 Cl5          2.7490     5.1090    -3.9690 cl         1 JPL      -0.103400
     22 H1           3.1650    -0.0000     1.2040 ha         1 JPL       0.151000
     23 H2           1.9270    -0.0000     3.3360 ha         1 JPL       0.141000
     24 H3           1.3500     2.3390    -0.2460 ha         1 JPL       0.156000
     25 H4           1.6330     4.4850    -1.4230 ha         1 JPL       0.148000
     26 H5           3.4350     2.4480    -4.7200 ha         1 JPL       0.160000
     27 H6          -3.7780     3.0350     4.9210 hc         1 JPL       0.041200
     28 H7          -3.0170     4.5950     5.2770 hc         1 JPL       0.041200
     29 H8          -1.2450     4.1050     3.6260 hc         1 JPL       0.041950
     30 H9          -2.8470     4.0530     2.8710 hc         1 JPL       0.041950
     31 H12         -0.9930     0.9650     6.2380 hc         1 JPL       0.042950
     32 H13         -2.5960     0.9140     5.4840 hc         1 JPL       0.042950
     33 H14         -1.1340    -0.8220    -1.2780 ho         1 JPL       0.427000
     34 H15         -1.7740    -0.0050     1.2040 ha         1 JPL       0.147000
     35 H16         -0.9670     3.4260     6.0090 hc         1 JPL       0.041950
     36 H17         -2.3720     2.8910     6.9480 hc         1 JPL       0.041950
     37 H18         -1.4680     2.1280     2.1610 hc         1 JPL       0.042950
     38 H19         -0.0640     1.9830     4.1880 hc         1 JPL       0.055700
     39 H20         -2.8740     1.5930     3.1000 hc         1 JPL       0.042950
     40 C18         -0.7480     0.0010     3.7030 c3         1 JPL      -0.035100
     41 Cl1          3.3480    -0.2570    -3.8320 cl         1 JPL      -0.085400
     42 H10         -1.6950    -0.5090     3.5740 hc         1 JPL       0.052700
     43 H11         -0.1620    -0.5100     4.4570 hc         1 JPL       0.052700
@<TRIPOS>BOND
     1    18    11 1
     2    18    13 1
     3    11    12 1
     4    12    19 1
     5    13    17 1
     6    17    19 1
     7    17    40 1
     8    40    16 1
     9     4     3 ar
    10     4    16 ar
    11     3     2 ar
    12    16    15 ar
    13     8     7 ar
    14     8     9 ar
    15     7     6 ar
    16    21     9 1
    17     9    10 ar
    18     2    20 1
    19     2     1 ar
    20    15     1 ar
    21     6    20 1
    22     6     5 ar
    23     1    14 1
    24    10     5 ar
    25     5    41 1
    26     3    22 1
    27     4    23 1
    28     7    24 1
    29     8    25 1
    30    10    26 1
    31    11    27 1
    32    11    28 1
    33    12    29 1
    34    12    30 1
    35    40    42 1
    36    40    43 1
    37    13    31 1
    38    13    32 1
    39    14    33 1
    40    15    34 1
    41    18    35 1
    42    18    36 1
    43    19    37 1
    44    17    38 1
    45    19    39 1
@<TRIPOS>SUBSTRUCTURE
     1 JPL         1 TEMP              0 ****  ****    0 ROOT
