@<TRIPOS>MOLECULE
molecule
   37    39     1     0     0
SMALL
bcc


@<TRIPOS>ATOM
      1 C2           0.0000     0.0000     0.0000 ca         1 JPM       0.105100
      2 C3           1.3910     0.0000     0.0000 ca         1 JPM       0.070100
      3 C4           2.0810     0.0000     1.2020 ca         1 JPM      -0.113000
      4 C5           1.3870    -0.0000     2.3970 ca         1 JPM      -0.130000
      5 C7           2.8140     1.2190    -3.0820 ca         1 JPM       0.007400
      6 C8           2.2300     1.1860    -1.8230 ca         1 JPM       0.153100
      7 C9           1.8060     2.3640    -1.2260 ca         1 JPM      -0.184000
      8 C10          1.9650     3.5670    -1.8860 ca         1 JPM      -0.085000
      9 C11          2.5480     3.5980    -3.1400 ca         1 JPM      -0.000600
     10 C12          2.9720     2.4250    -3.7370 ca         1 JPM      -0.087000
     11 C15         -1.4590     4.0260     4.9350 ca         1 JPM      -0.127000
     12 C16         -0.3070     3.3740     5.3340 ca         1 JPM      -0.124500
     13 C19         -2.1510     2.0700     3.7410 ca         1 JPM      -0.121500
     14 O2          -0.6810     0.0000    -1.1770 oh         1 JPM      -0.505100
     15 O1           2.0730    -0.0010    -1.1760 os         1 JPM      -0.226200
     16 Cl5          2.7480     5.1120    -3.9650 cl         1 JPM      -0.103400
     17 C1          -0.6900    -0.0050     1.2020 ca         1 JPM      -0.165000
     18 C6           0.0040    -0.0010     2.3970 ca         1 JPM      -0.053300
     19 C13         -0.9990     1.4190     4.1390 ca         1 JPM      -0.083300
     20 C17         -0.0760     2.0710     4.9350 ca         1 JPM      -0.121500
     21 C14         -2.3820     3.3730     4.1400 ca         1 JPM      -0.124500
     22 H4           3.1640     0.0000     1.2050 ha         1 JPM       0.151000
     23 H5           1.9270    -0.0000     3.3360 ha         1 JPM       0.140000
     24 H9           1.3490     2.3400    -0.2440 ha         1 JPM       0.157000
     25 H10          1.6330     4.4880    -1.4200 ha         1 JPM       0.149000
     26 H12          3.4290     2.4510    -4.7200 ha         1 JPM       0.160000
     27 H15         -1.6400     5.0470     5.2480 ha         1 JPM       0.131000
     28 H16          0.4170     3.8850     5.9580 ha         1 JPM       0.131000
     29 H18         -0.1620    -0.5120     4.4580 hc         1 JPM       0.058200
     30 H18A        -1.6950    -0.5130     3.5750 hc         1 JPM       0.058200
     31 H19         -2.8750     1.5580     3.1180 ha         1 JPM       0.129000
     32 HO2         -1.1720    -0.8010    -1.2560 ho         1 JPM       0.427000
     33 H1          -1.7740    -0.0060     1.2050 ha         1 JPM       0.144000
     34 H17          0.8260     1.5600     5.2480 ha         1 JPM       0.129000
     35 H14         -3.2850     3.8840     3.8280 ha         1 JPM       0.131000
     36 C18         -0.7480    -0.0020     3.7040 c3         1 JPM       0.009200
     37 Cl1          3.3530    -0.2530    -3.8290 cl         1 JPM      -0.085400
@<TRIPOS>BOND
     1     1     2 ar
     2     1    14 1
     3     1    17 ar
     4     2     3 ar
     5     2    15 1
     6     3     4 ar
     7     4    18 ar
     8     5     6 ar
     9     5    10 ar
    10     5    37 1
    11     6     7 ar
    12     6    15 1
    13     7     8 ar
    14     8     9 ar
    15     9    10 ar
    16     9    16 1
    17    11    12 ar
    18    11    21 ar
    19    12    20 ar
    20    36    18 1
    21    36    19 1
    22    13    19 ar
    23    13    21 ar
    24    17    18 ar
    25    19    20 ar
    26     3    22 1
    27     4    23 1
    28     7    24 1
    29     8    25 1
    30    10    26 1
    31    11    27 1
    32    12    28 1
    33    36    29 1
    34    36    30 1
    35    13    31 1
    36    14    32 1
    37    17    33 1
    38    20    34 1
    39    21    35 1
@<TRIPOS>SUBSTRUCTURE
     1 JPM         1 TEMP              0 ****  ****    0 ROOT
