@<TRIPOS>MOLECULE
JPM
   37    36     1     0     0
SMALL
bcc


@<TRIPOS>ATOM
      1 C2          0.6330    1.1900    0.1800 c2        1 JPM      0.065000
      2 C3          1.3680    0.3830   -0.6380 c2        1 JPM      0.025000
      3 C4          2.2390   -0.6630   -0.1460 c2        1 JPM     -0.409000
      4 C5          2.2450   -1.1590    1.0780 c1        1 JPM      0.138000
      5 C7          3.1370    0.5310   -3.5300 ca        1 JPM     -0.067000
      6 C8          2.2680    1.1940   -2.6470 ca        1 JPM      0.055000
      7 C9          2.3510    2.5830   -2.4790 ca        1 JPM     -0.123000
      8 C10         3.2920    3.3150   -3.1940 ca        1 JPM     -0.114000
      9 C11         4.1520    2.6550   -4.0800 ca        1 JPM     -0.063000
     10 C12         4.0790    1.2720   -4.2550 ca        1 JPM     -0.116000
     11 C15        -4.7880    3.2240    6.7250 c1        1 JPM     -0.220000
     12 C16        -0.5370    3.9840    5.1920 c1        1 JPM     -0.220000
     13 C19        -3.3130    1.8150    5.0670 c3        1 JPM     -0.056000
     14 O2         -0.0380    2.2530   -0.3870 oh        1 JPM     -0.244000
     15 O1          1.2410    0.4820   -2.0250 os        1 JPM     -0.142000
     16 CL5         5.3030    3.5460   -4.9570 cl        1 JPM     -0.006000
     17 C1          0.5940    1.0480    1.6250 c2        1 JPM     -0.239000
     18 C6          0.3440   -0.1160    2.2630 c2        1 JPM     -0.158000
     19 C13        -1.8490    1.7240    5.4830 c3        1 JPM     -0.056000
     20 C17        -1.1410    2.9590    5.3220 c1        1 JPM     -0.165000
     21 C14        -4.1100    2.5840    5.9750 c1        1 JPM     -0.165000
     22 H4          0.0510   -1.0360    1.6920 ha        1 JPM      0.203000
     23 H5          2.9480   -1.0760   -0.8970 ha        1 JPM      0.208000
     24 H9          1.6540    3.0770   -1.7820 ha        1 JPM      0.170000
     25 H10         3.3560    4.4070   -3.0660 ha        1 JPM      0.153000
     26 H12         4.7580    0.7620   -4.9570 ha        1 JPM      0.163000
     27 H15        -5.3880    3.7910    7.3900 ha        1 JPM      0.221000
     28 H16        -0.0060    4.8940    5.0830 ha        1 JPM      0.221000
     29 H18        -1.7850    1.3960    6.5590 hc        1 JPM      0.109000
     30 H18A        0.9830   -0.6070    4.3140 ha        1 JPM      0.124000
     31 H19        -3.7280    0.7690    5.0090 hc        1 JPM      0.109000
     32 HO2        -0.7100    2.5460    0.2480 ho        1 JPM      0.226000
     33 H1          0.7830    1.9780    2.1870 ha        1 JPM      0.150000
     34 H17        -1.3500    0.9240    4.8560 hc        1 JPM      0.109000
     35 H14        -3.3840    2.2620    4.0360 hc        1 JPM      0.109000
     36 C18         0.1790   -0.3260    3.6310 c1        1 JPM     -0.002000
     37 CL1         3.0760   -1.1510   -3.7560 cl        1 JPM      0.007000
@<TRIPOS>BOND
     1    1    2 1   
     2    1   14 1   
     3    1   17 1   
     4    2    3 1   
     5    2   15 1   
     6    3    4 1   
     7    3   23 1   
     8    5    6 1   
     9    5   10 1   
    10    5   37 1   
    11    6    7 1   
    12    6   15 1   
    13    7    8 1   
    14    7   24 1   
    15    8    9 1   
    16    8   25 1   
    17    9   10 1   
    18    9   16 1   
    19   10   26 1   
    20   11   21 1   
    21   11   27 1   
    22   12   20 1   
    23   12   28 1   
    24   13   19 1   
    25   13   21 1   
    26   13   31 1   
    27   13   35 1   
    28   14   32 1   
    29   17   18 1   
    30   17   33 1   
    31   18   22 1   
    32   18   36 1   
    33   19   20 1   
    34   19   29 1   
    35   19   34 1   
    36   30   36 1   
@<TRIPOS>SUBSTRUCTURE
     1 JPM         1 TEMP              0 ****  ****    0 ROOT
