@<TRIPOS>MOLECULE
JPN
   43    45     1     0     0
SMALL
bcc


@<TRIPOS>ATOM
      1 CL24        0.1940   -1.1080   -0.1200 cl        1 JPN     -0.060400
      2 C18         1.7750   -0.4990   -0.0380 ca        1 JPN      0.000400
      3 C19         2.5230   -0.7290    1.1210 ca        1 JPN     -0.099000
      4 C17         2.3560    0.2240   -1.0990 ca        1 JPN      0.117100
      5 C22         3.6650    0.7110   -0.9920 ca        1 JPN     -0.168000
      6 C21         4.4000    0.4810    0.1660 ca        1 JPN     -0.094000
      7 C20         3.8270   -0.2390    1.2190 ca        1 JPN     -0.002600
      8 CL25        4.7230   -0.5220    2.6340 cl        1 JPN     -0.082400
      9 O16         1.5860    0.3740   -2.2470 os        1 JPN     -0.244200
     10 C13         1.9920    1.3730   -3.1340 ca        1 JPN     -0.012900
     11 C14         1.9490    2.7300   -2.7970 ca        1 JPN     -0.100000
     12 C15         2.2400    3.6810   -3.7690 ca        1 JPN     -0.155000
     13 C10         2.5710    3.2930   -5.0760 ca        1 JPN     -0.041300
     14 C11         2.6060    1.9400   -5.4170 ca        1 JPN     -0.152000
     15 C12         2.3170    0.9700   -4.4430 ca        1 JPN      0.138100
     16 O23         2.3560   -0.3440   -4.8320 oh        1 JPN     -0.489100
     17 C9          2.8690    4.3290   -6.1030 c3        1 JPN     -0.042100
     18 C8          4.2090    4.9950   -5.8540 c3        1 JPN     -0.073400
     19 C7          4.4810    6.0660   -6.8950 c3        1 JPN     -0.037100
     20 C3          5.7760    6.7550   -6.6470 ca        1 JPN     -0.079300
     21 C4          5.8860    7.6960   -5.6150 ca        1 JPN     -0.127000
     22 C5          7.0950    8.3490   -5.3850 ca        1 JPN     -0.128000
     23 C6          8.2050    8.0690   -6.1820 ca        1 JPN     -0.131000
     24 C1          8.1020    7.1340   -7.2110 ca        1 JPN     -0.128000
     25 C2          6.8930    6.4790   -7.4430 ca        1 JPN     -0.127000
     26 H19         2.0780   -1.2960    1.9560 ha        1 JPN      0.164000
     27 H22         4.1060    1.2790   -1.8260 ha        1 JPN      0.160000
     28 H21         5.4290    0.8650    0.2470 ha        1 JPN      0.155000
     29 H14         1.6850    3.0280   -1.7720 ha        1 JPN      0.150000
     30 H15         2.2080    4.7500   -3.5130 ha        1 JPN      0.140000
     31 H11         2.8560    1.6140   -6.4370 ha        1 JPN      0.156000
     32 HO23        2.0970   -0.8890   -4.0720 ho        1 JPN      0.439000
     33 H91         2.0570    5.1070   -6.0870 hc        1 JPN      0.052700
     34 H92         2.8670    3.8690   -7.1280 hc        1 JPN      0.052700
     35 H81         5.0250    4.2260   -5.8820 hc        1 JPN      0.049700
     36 H82         4.2180    5.4540   -4.8300 hc        1 JPN      0.049700
     37 H71         3.6490    6.8210   -6.8770 hc        1 JPN      0.048200
     38 H72         4.4820    5.5990   -7.9160 hc        1 JPN      0.048200
     39 H4          5.0110    7.9180   -4.9870 ha        1 JPN      0.130500
     40 H5          7.1730    9.0880   -4.5730 ha        1 JPN      0.131000
     41 H6          9.1590    8.5850   -6.0000 ha        1 JPN      0.131000
     42 H1          8.9750    6.9110   -7.8410 ha        1 JPN      0.131000
     43 H2          6.8170    5.7420   -8.2570 ha        1 JPN      0.130500
@<TRIPOS>BOND
     1    1    2 1   
     2    2    3 ar  
     3    2    4 ar  
     4    3    7 ar  
     5    3   26 1   
     6    4    5 ar  
     7    4    9 1   
     8    5    6 ar  
     9    5   27 1   
    10    6    7 ar  
    11    6   28 1   
    12    7    8 1   
    13    9   10 1   
    14   10   11 ar  
    15   10   15 ar  
    16   11   12 ar  
    17   11   29 1   
    18   12   13 ar  
    19   12   30 1   
    20   13   14 ar  
    21   13   17 1   
    22   14   15 ar  
    23   14   31 1   
    24   15   16 1   
    25   16   32 1   
    26   17   18 1   
    27   17   33 1   
    28   17   34 1   
    29   18   19 1   
    30   18   35 1   
    31   18   36 1   
    32   19   20 1   
    33   19   37 1   
    34   19   38 1   
    35   20   21 ar  
    36   20   25 ar  
    37   21   22 ar  
    38   21   39 1   
    39   22   23 ar  
    40   22   40 1   
    41   23   24 ar  
    42   23   41 1   
    43   24   25 ar  
    44   24   42 1   
    45   25   43 1   
@<TRIPOS>SUBSTRUCTURE
     1 JPN         1 TEMP              0 ****  ****    0 ROOT
