@<TRIPOS>MOLECULE
molecule
   43    45     1     0     0
SMALL
bcc


@<TRIPOS>ATOM
      1 Cl24         0.0000     0.0000     0.0000 cl         1 JPN      -0.074400
      2 C18          1.7250     0.0000     0.0000 ca         1 JPN       0.019400
      3 C19          2.4020     0.0000     1.2200 ca         1 JPN      -0.108000
      4 C17          2.4530    -0.0010    -1.1770 ca         1 JPN       0.118100
      5 C22          3.8380    -0.0010    -1.1720 ca         1 JPN      -0.134000
      6 C21          4.5140    -0.0000     0.0480 ca         1 JPN      -0.108000
      7 C20          3.7960     0.0000     1.2440 ca         1 JPN       0.017400
      8 Cl25         4.6320     0.0020     2.7480 cl         1 JPN      -0.089400
      9 O16          1.8080    -0.0010    -2.4020 os         1 JPN      -0.245200
     10 C13          2.0480     1.0440    -3.2430 ca         1 JPN       0.086100
     11 C14          1.7380     2.3400    -2.8320 ca         1 JPN      -0.142000
     12 C15          1.9790     3.4180    -3.6840 ca         1 JPN      -0.119000
     13 C10          2.5260     3.1860    -4.9370 ca         1 JPN      -0.070300
     14 C11          2.8390     1.9030    -5.3580 ca         1 JPN      -0.151000
     15 C12          2.5980     0.8240    -4.5060 ca         1 JPN       0.101100
     16 O23          2.9040    -0.4370    -4.9180 oh         1 JPN      -0.509100
     17 C9           2.7880     4.3510    -5.8570 c3         1 JPN      -0.036100
     18 C8           4.1760     4.9970    -5.7270 c3         1 JPN      -0.069400
     19 C7           4.4140     6.2040    -6.6600 c3         1 JPN      -0.034100
     20 C3           5.7410     6.8730    -6.5350 ca         1 JPN      -0.079300
     21 C4           5.9100     7.9260    -5.6360 ca         1 JPN      -0.124000
     22 C5           7.1510     8.5510    -5.5200 ca         1 JPN      -0.127000
     23 C6           8.2230     8.1240    -6.3030 ca         1 JPN      -0.130000
     24 C1           8.0550     7.0730    -7.2030 ca         1 JPN      -0.127000
     25 C2           6.8130     6.4460    -7.3190 ca         1 JPN      -0.124000
     26 H19          1.8440     0.0000     2.1490 ha         1 JPN       0.161000
     27 H22          4.3890    -0.0020    -2.1050 ha         1 JPN       0.165000
     28 H21          5.5970    -0.0000     0.0670 ha         1 JPN       0.152000
     29 H14          1.3110     2.5110    -1.8510 ha         1 JPN       0.149000
     30 H15          1.7410     4.4270    -3.3710 ha         1 JPN       0.141000
     31 H11          3.2660     1.7380    -6.3400 ha         1 JPN       0.147000
     32 HO23         2.2970    -0.7050    -5.5880 ho         1 JPN       0.423000
     33 H91          2.6670     4.0100    -6.8780 hc         1 JPN       0.045700
     34 H92          2.0410     5.1110    -5.6620 hc         1 JPN       0.045700
     35 H81          4.9250     4.2450    -5.9440 hc         1 JPN       0.045700
     36 H82          4.3060     5.3260    -4.7030 hc         1 JPN       0.045700
     37 H71          3.6450     6.9410    -6.4600 hc         1 JPN       0.043700
     38 H72          4.3010     5.8660    -7.6830 hc         1 JPN       0.043700
     39 H4           5.0770     8.2580    -5.0280 ha         1 JPN       0.130500
     40 H5           7.2820     9.3690    -4.8210 ha         1 JPN       0.130000
     41 H6           9.1870     8.6110    -6.2120 ha         1 JPN       0.130000
     42 H1           8.8880     6.7410    -7.8110 ha         1 JPN       0.130000
     43 H2           6.6810     5.6290    -8.0180 ha         1 JPN       0.130500
@<TRIPOS>BOND
     1     1     2 1
     2     2     4 ar
     3     2     3 ar
     4     3     7 ar
     5     3    26 1
     6     4     5 ar
     7     4     9 1
     8     5     6 ar
     9     5    27 1
    10     6     7 ar
    11     6    28 1
    12     7     8 1
    13     9    10 1
    14    10    15 ar
    15    10    11 ar
    16    11    12 ar
    17    11    29 1
    18    12    13 ar
    19    12    30 1
    20    13    17 1
    21    13    14 ar
    22    14    15 ar
    23    14    31 1
    24    15    16 1
    25    16    32 1
    26    17    18 1
    27    17    33 1
    28    17    34 1
    29    18    19 1
    30    18    35 1
    31    18    36 1
    32    19    20 1
    33    19    37 1
    34    19    38 1
    35    20    21 ar
    36    20    25 ar
    37    21    22 ar
    38    21    39 1
    39    22    23 ar
    40    22    40 1
    41    23    24 ar
    42    23    41 1
    43    24    25 ar
    44    24    42 1
    45    25    43 1
@<TRIPOS>SUBSTRUCTURE
     1 JPN         1 TEMP              0 ****  ****    0 ROOT
