@<TRIPOS>MOLECULE
molecule
   64    66     1     0     0
SMALL
bcc


@<TRIPOS>ATOM
      1 S            0.0000     0.0000     0.0000 ss         1 JPP      -0.448200
      2 O01          1.1090    -3.2350    -0.7430 o          1 JPP      -0.541100
      3 O02          1.4510     3.2060     3.0840 o          1 JPP      -0.839300
      4 O03          2.7590     2.5570     1.4260 o          1 JPP      -0.839300
      5 O06          3.8080    -2.5590    -2.5600 o          1 JPP      -0.640100
      6 O04          2.0920    -3.1000    -6.8000 o          1 JPP      -0.586100
      7 O05          2.8060    -4.0370    -8.8400 o          1 JPP      -0.498500
      8 O            4.7220    -5.4240   -10.2160 o          1 JPP      -0.586500
      9 N02          2.1230     0.0000     1.4630 n7         1 JPP      -0.816200
     10 N03          2.0970    -1.2240    -2.1020 ns         1 JPP      -0.542900
     11 N04          3.5390    -2.6910    -5.1660 ns         1 JPP      -0.579900
     12 N01          4.1480    -3.8940    -7.0710 n          1 JPP      -0.500400
     13 N            5.8890    -5.7090    -8.3410 n          1 JPP      -0.495800
     14 C17          1.8420     0.0000     0.0000 c3         1 JPP       0.280600
     15 C19         -0.1560     1.0400     1.5060 c3         1 JPP       0.107100
     16 C18          1.2300     0.9250     2.1680 c3         1 JPP       0.043500
     17 C20          2.3930    -1.2610    -0.6690 c3         1 JPP       0.015700
     18 C01          1.7500    -2.4780    -0.0540 c          1 JPP       0.587900
     19 C02         -0.4530     2.4930     1.1290 c3         1 JPP      -0.076600
     20 C03         -1.2450     0.4910     2.4290 c3         1 JPP      -0.076600
     21 C04          1.8700     2.2890     2.1990 c          1 JPP       0.869600
     22 C21          2.8680    -1.9100    -2.9680 c          1 JPP       0.668100
     23 CA           2.5640    -1.8720    -4.4440 c3         1 JPP       0.107000
     24 C05          2.6410    -0.4490    -4.9360 ca         1 JPP      -0.090300
     25 C07          3.8700     0.1200    -5.2150 ca         1 JPP      -0.110000
     26 C08          1.4830     0.2850    -5.1130 ca         1 JPP      -0.110000
     27 C09          5.4660    -4.1490    -6.4910 c3         1 JPP       0.069000
     28 C10          5.9700    -5.5330    -6.8910 c3         1 JPP       0.091000
     29 C11          3.8580    -4.3330    -8.3120 c          1 JPP       0.634500
     30 C12          3.9400     1.4250    -5.6660 ca         1 JPP      -0.130500
     31 C13          1.5540     1.5890    -5.5630 ca         1 JPP      -0.130500
     32 C14          4.8510    -5.1900    -9.0320 c          1 JPP       0.636500
     33 C15          6.9440    -6.4400    -9.0480 c3         1 JPP       0.104000
     34 C16          2.7820     2.1600    -5.8380 ca         1 JPP      -0.123000
     35 C            8.0440    -5.4640    -9.4720 c3         1 JPP      -0.114100
     36 H2           3.0740     0.2700     1.6200 hn         1 JPP       0.378800
     37 H4           1.3020    -0.7160    -2.4350 hn         1 JPP       0.336500
     38 H5           4.4350    -2.8760    -4.7600 hn         1 JPP       0.329500
     39 H6           2.2280     0.8980    -0.4670 h2         1 JPP       0.093700
     40 H7           1.1010     0.5730     3.1840 h1         1 JPP       0.080700
     41 H8           3.4660    -1.3070    -0.5230 h1         1 JPP       0.099700
     42 H9           1.8560    -2.6690     1.0080 h4         1 JPP       0.022200
     43 H10          0.3610     2.8850     0.5320 hc         1 JPP       0.046033
     44 H11         -1.3730     2.5360     0.5580 hc         1 JPP       0.046033
     45 H12         -0.5590     3.0850     2.0300 hc         1 JPP       0.046033
     46 H13         -2.1910     0.4760     1.9020 hc         1 JPP       0.046033
     47 H14         -0.9860    -0.5160     2.7340 hc         1 JPP       0.046033
     48 H15         -1.3290     1.1230     3.3050 hc         1 JPP       0.046033
     49 H16          1.5670    -2.2610    -4.6170 h1         1 JPP       0.109700
     50 H17          4.7770    -0.4520    -5.0670 ha         1 JPP       0.136000
     51 H18          0.4390    -0.0030    -5.1580 ha         1 JPP       0.136000
     52 H19          6.1630    -3.4000    -6.8480 h1         1 JPP       0.067700
     53 H20          5.3970    -4.0940    -5.4120 h1         1 JPP       0.067700
     54 H21          5.3620    -6.2870    -6.4070 h1         1 JPP       0.060200
     55 H22          7.0010    -5.6410    -6.5770 h1         1 JPP       0.060200
     56 H23          4.9050     1.8840    -5.8470 ha         1 JPP       0.128500
     57 H24          0.6650     2.1630    -5.7950 ha         1 JPP       0.128500
     58 H25          7.3630    -7.1940    -8.3920 h1         1 JPP       0.060700
     59 H26          6.5260    -6.9170    -9.9270 h1         1 JPP       0.060700
     60 H27          2.8530     3.1670    -6.2300 ha         1 JPP       0.125000
     61 H28          7.5970    -4.6020    -9.9520 hc         1 JPP       0.042033
     62 H29          8.7150    -5.9560   -10.1660 hc         1 JPP       0.042033
     63 H30          8.5990    -5.1440    -8.5990 hc         1 JPP       0.042033
     64 C06          3.2190    -3.2240    -6.3610 c          1 JPP       0.776100
@<TRIPOS>BOND
     1     4    21 1
     2     2    18 2
     3     3    21 1
     4    21    16 1
     5     6    64 2
     6    18    17 1
     7    16     9 1
     8    16    15 1
     9    25    30 ar
    10    25    24 ar
    11    30    34 ar
    12    27    28 1
    13    27    12 1
    14    20    15 1
    15     9    14 1
    16    10    17 1
    17    10    22 1
    18    64    12 1
    19    64    11 1
    20    28    13 1
    21    23    24 1
    22    23    22 1
    23    23    11 1
    24    15    19 1
    25    15     1 1
    26    17    14 1
    27    24    26 ar
    28    12    29 1
    29    34    31 ar
    30    22     5 2
    31    14     1 1
    32    26    31 ar
    33    13    33 1
    34    13    32 1
    35    29     7 2
    36    29    32 1
    37    35    33 1
    38    32     8 2
    39     9    36 1
    40    10    37 1
    41    11    38 1
    42    14    39 1
    43    16    40 1
    44    17    41 1
    45    18    42 1
    46    19    43 1
    47    19    44 1
    48    19    45 1
    49    20    46 1
    50    20    47 1
    51    20    48 1
    52    23    49 1
    53    25    50 1
    54    26    51 1
    55    27    52 1
    56    27    53 1
    57    28    54 1
    58    28    55 1
    59    30    56 1
    60    31    57 1
    61    33    58 1
    62    33    59 1
    63    34    60 1
    64    35    61 1
    65    35    62 1
    66    35    63 1
@<TRIPOS>SUBSTRUCTURE
     1 JPP         1 TEMP              0 ****  ****    0 ROOT
