@<TRIPOS>MOLECULE
JPR
   51    49     1     0     0
SMALL
bcc


@<TRIPOS>ATOM
      1 CL1         0.2640    0.7160    1.7250 cl        1 JPR      0.316000
      2 N1          2.1370   -0.7480    3.8450 n2        1 JPR     -0.353000
      3 O1          0.6890    0.8030    4.8210 o         1 JPR     -0.374000
      4 S1          0.2010   -2.5790    9.1410 ss        1 JPR      0.148000
      5 C2          2.8540    0.3260    0.6090 cv        1 JPR     -0.220000
      6 N2          2.0350   -0.3280    6.3700 n4        1 JPR     -0.157000
      7 O2         -1.0370   -1.7060   12.8590 os        1 JPR     -0.223000
      8 C3          3.5790    1.4320    0.5870 c2        1 JPR     -0.040000
      9 N3         -2.7210   -1.2010   15.2640 n3        1 JPR      0.047000
     10 C4          1.4840   -0.0770    1.0690 cv        1 JPR      0.207000
     11 C5          4.3170   -1.8470    3.5730 c1        1 JPR      0.202000
     12 C6          1.7180   -1.4390    0.6260 cv        1 JPR     -0.194000
     13 C7          3.0840   -1.7480    4.0620 c2        1 JPR     -0.396000
     14 C8          1.5690   -0.0770    4.8210 c2        1 JPR      0.305000
     15 C9          1.0450   -1.1740    7.0610 c3        1 JPR     -0.117000
     16 C10         1.2620   -1.2910    8.5620 c3        1 JPR     -0.327000
     17 C11        -0.7300   -1.8690   10.4580 c3        1 JPR     -0.306000
     18 C12        -0.2260   -2.3510   11.8010 c3        1 JPR      0.037000
     19 C13        -0.4100   -3.8320   12.0400 c2        1 JPR     -0.106000
     20 C14        -1.2020   -4.0220   13.1190 c2        1 JPR     -0.165000
     21 C15        -1.5900   -2.7010   13.6440 c2        1 JPR      0.167000
     22 C16        -2.3580   -2.4650   14.7400 c2        1 JPR     -0.252000
     23 C17        -2.2310   -0.0080   14.5820 c3        1 JPR     -0.152000
     24 C18        -3.4710   -1.1100   16.3310 c2        1 JPR      0.006000
     25 H11         3.5800    3.4430   -1.8790 ha        1 JPR      0.001000
     26 H12         3.5310    3.0040   -1.3650 ha        1 JPR      0.001000
     27 H13A        3.8340   -1.6430   -0.2530 ha        1 JPR      0.219000
     28 HN1         1.1090   -2.3380    0.6530 ha        1 JPR      0.224000
     29 HN2         2.9570   -0.7510    6.4100 hn        1 JPR      0.217000
     30 H3          3.2030    2.3940    0.9740 ha        1 JPR      0.170500
     31 H5          4.6010    1.4520    0.1730 ha        1 JPR      0.170500
     32 H6          2.7440   -2.6700    4.6040 h4        1 JPR      0.164000
     33 H91         0.0250   -0.7320    6.8540 hx        1 JPR      0.147000
     34 H92         1.0810   -2.2000    6.5910 hx        1 JPR      0.147000
     35 H101        1.0560   -0.3190    9.0710 h1        1 JPR      0.125500
     36 H102        2.3190   -1.5820    8.7930 h1        1 JPR      0.125500
     37 H111       -1.7910   -2.2000   10.3080 h1        1 JPR      0.142500
     38 H112       -0.7200   -0.7520   10.4360 h1        1 JPR      0.142500
     39 H13         0.8300   -2.0220   12.0010 h1        1 JPR      0.153000
     40 H14         0.0660   -4.5770   11.3960 ha        1 JPR      0.202000
     41 H161       -1.5310   -4.9590   13.5740 ha        1 JPR      0.198000
     42 H162       -2.7530   -3.3320   15.3060 h4        1 JPR      0.201000
     43 H171       -2.6050   -0.0170   13.5210 h1        1 JPR      0.145000
     44 H172       -1.1060   -0.0310   14.5730 h1        1 JPR      0.145000
     45 H173       -2.5870    0.9210   15.1020 h1        1 JPR      0.145000
     46 H181       -6.5520   -0.9850   15.9240 ha        1 JPR      0.001000
     47 H182       -3.7520   -0.1170   16.7410 h4        1 JPR      0.201000
     48 H183       -5.8740   -1.0060   15.9320 ha        1 JPR      0.001000
     49 H22         2.0710    0.5890    6.8140 hn        1 JPR      0.217000
     50 H31        -3.8440   -2.0160   16.8520 h4        1 JPR      0.201000
     51 C1          3.0020   -1.1080    0.2010 cv        1 JPR      0.142000
@<TRIPOS>BOND
     1    1   10 1   
     2    2   13 1   
     3    2   14 1   
     4    3   14 1   
     5    4   16 1   
     6    4   17 1   
     7    5    8 1   
     8    5   10 1   
     9    5   51 1   
    10    6   14 1   
    11    6   15 1   
    12    6   29 1   
    13    6   49 1   
    14    7   18 1   
    15    7   21 1   
    16    8   30 1   
    17    8   31 1   
    18    9   22 1   
    19    9   23 1   
    20    9   24 1   
    21   10   12 1   
    22   11   13 1   
    23   12   28 1   
    24   12   51 1   
    25   13   32 1   
    26   15   16 1   
    27   15   33 1   
    28   15   34 1   
    29   16   35 1   
    30   16   36 1   
    31   17   18 1   
    32   17   37 1   
    33   17   38 1   
    34   18   19 1   
    35   18   39 1   
    36   19   20 1   
    37   19   40 1   
    38   20   21 1   
    39   20   41 1   
    40   21   22 1   
    41   22   42 1   
    42   23   43 1   
    43   23   44 1   
    44   23   45 1   
    45   24   47 1   
    46   24   50 1   
    47   25   26 1   
    48   27   51 1   
    49   46   48 1   
@<TRIPOS>SUBSTRUCTURE
     1 JPR         1 TEMP              0 ****  ****    0 ROOT
