@<TRIPOS>MOLECULE
JPS
   37    39     1     0     0
SMALL
bcc


@<TRIPOS>ATOM
      1 CAA         0.1250   -0.1390   -0.0820 cx        1 JPS     -0.115700
      2 CAG        -0.6020   -1.4080   -0.3900 c3        1 JPS     -0.053400
      3 CAH        -2.0440   -1.1390   -0.7880 c3        1 JPS      0.010900
      4 CAM        -2.7860   -2.3840   -1.0390 cc        1 JPS     -0.132400
      5 CAI        -3.0650   -3.3680   -0.1160 cd        1 JPS     -0.115000
      6 SAK        -3.4360   -2.7600   -2.5510 ss        1 JPS     -0.034800
      7 CAO        -4.0950   -4.2160   -2.0280 cc        1 JPS     -0.117400
      8 CAN        -3.8230   -4.4410   -0.6890 cd        1 JPS     -0.063300
      9 CAR        -4.2550   -5.6440    0.0880 c3        1 JPS      0.078100
     10 CAL        -4.9380   -5.1840    1.4310 c         1 JPS      0.910600
     11 OAC        -6.1770   -4.9830    1.4440 o         1 JPS     -0.819300
     12 OAB        -4.1550   -5.0620    2.4150 o         1 JPS     -0.819300
     13 OAF        -3.1080   -6.4390    0.3880 oh        1 JPS     -0.628800
     14 CAJ        -5.2130   -6.5170   -0.7220 c3        1 JPS     -0.092400
     15 CAP        -4.8440   -6.5620   -2.1950 c3        1 JPS      0.107100
     16 OAD        -5.6830   -7.4380   -2.9380 oh        1 JPS     -0.624800
     17 CAQ        -4.9220   -5.1530   -2.8240 c3        1 JPS      0.200400
     18 OAE        -4.5010   -5.1690   -4.1850 oh        1 JPS     -0.616800
     19 CA0         1.4120   -0.1980    0.6980 cx        1 JPS     -0.137900
     20 CA1         0.1800    0.3760    1.3320 cx        1 JPS     -0.137900
     21 HAA         0.0490    0.6070   -0.8980 hc        1 JPS      0.069700
     22 HAG1       -0.5890   -2.0930    0.5000 hc        1 JPS      0.051200
     23 HAG2       -0.0750   -1.9400   -1.2260 hc        1 JPS      0.051200
     24 HA01        2.2380    0.4780    0.4180 hc        1 JPS      0.066200
     25 HA02        1.7810   -1.1810    1.0400 hc        1 JPS      0.066200
     26 HA11       -0.3310   -0.1970    2.1270 hc        1 JPS      0.066200
     27 HA12        0.1230    1.4640    1.5070 hc        1 JPS      0.066200
     28 HAH1       -2.0600   -0.4870   -1.7030 hc        1 JPS      0.040700
     29 HAH2       -2.5500   -0.5650    0.0370 hc        1 JPS      0.040700
     30 HAI        -2.7900   -3.3700    0.9450 ha        1 JPS      0.178000
     31 HAQ        -5.9980   -4.8040   -2.8160 h1        1 JPS      0.043700
     32 HAF        -2.8180   -6.1770    1.2770 ho        1 JPS      0.427000
     33 HAJ1       -5.1940   -7.5570   -0.3080 hc        1 JPS      0.068700
     34 HAJ2       -6.2490   -6.1030   -0.5930 hc        1 JPS      0.068700
     35 HAP        -3.8080   -6.9820   -2.3330 h1        1 JPS      0.090700
     36 HAD        -6.5900   -7.2670   -2.6590 ho        1 JPS      0.398000
     37 HAE        -4.6390   -6.0700   -4.5060 ho        1 JPS      0.410000
@<TRIPOS>BOND
     1    1    2 1   
     2    1   19 1   
     3    1   20 1   
     4    1   21 1   
     5    2    3 1   
     6    2   22 1   
     7    2   23 1   
     8    3    4 1   
     9    3   28 1   
    10    3   29 1   
    11    4    5 2   
    12    4    6 1   
    13    5    8 1   
    14    5   30 1   
    15    6    7 1   
    16    7    8 2   
    17    7   17 1   
    18    8    9 1   
    19    9   10 1   
    20    9   13 1   
    21    9   14 1   
    22   10   11 1   
    23   10   12 1   
    24   13   32 1   
    25   14   15 1   
    26   14   33 1   
    27   14   34 1   
    28   15   16 1   
    29   15   17 1   
    30   15   35 1   
    31   16   36 1   
    32   17   18 1   
    33   17   31 1   
    34   18   37 1   
    35   19   20 1   
    36   19   24 1   
    37   19   25 1   
    38   20   26 1   
    39   20   27 1   
@<TRIPOS>SUBSTRUCTURE
     1 JPS         1 TEMP              0 ****  ****    0 ROOT
