@<TRIPOS>MOLECULE
molecule
   37    39     1     0     0
SMALL
bcc


@<TRIPOS>ATOM
      1 CAA          0.0000     0.0000     0.0000 cx         1 JPS      -0.127700
      2 CAG         -0.7050    -1.2960    -0.4080 c3         1 JPS      -0.046400
      3 CAH         -2.2160    -1.0570    -0.4640 c3         1 JPS       0.008900
      4 CAM         -2.9110    -2.3320    -0.8660 cc         1 JPS      -0.053400
      5 CAI         -3.3470    -3.2650    -0.0250 cd         1 JPS      -0.099000
      6 SAK         -3.2740    -2.8120    -2.5170 ss         1 JPS      -0.238800
      7 CAO         -4.0170    -4.3030    -1.9560 cc         1 JPS      -0.049400
      8 CAN         -3.9630    -4.3660    -0.6130 cd         1 JPS      -0.036300
      9 CAR         -4.5290    -5.5360     0.1820 c3         1 JPS       0.109100
     10 CAL         -5.2710    -5.0160     1.3860 c          1 JPS       0.869600
     11 OAC         -6.4670    -4.8500     1.3340 o          1 JPS      -0.827800
     12 OAB         -4.6030    -4.7400     2.5170 o          1 JPS      -0.827800
     13 OAF         -3.4620    -6.3880     0.6060 oh         1 JPS      -0.614800
     14 CAJ         -5.4900    -6.3200    -0.7130 c3         1 JPS      -0.094400
     15 CAP         -4.7940    -6.6520    -2.0360 c3         1 JPS       0.140100
     16 OAD         -5.5870    -7.5840    -2.7740 oh         1 JPS      -0.620800
     17 CAQ         -4.6320    -5.3620    -2.8480 c3         1 JPS       0.224400
     18 OAE         -3.7780    -5.6010    -3.9680 oh         1 JPS      -0.605800
     19 CA0          1.5300     0.0000     0.0000 cx         1 JPS      -0.145900
     20 CA1          0.7650     0.0000     1.3250 cx         1 JPS      -0.145900
     21 HAA         -0.4540     0.9480    -0.2620 hc         1 JPS       0.072700
     22 HAG1        -0.4890    -2.0690     0.3190 hc         1 JPS       0.053200
     23 HAG2        -0.3520    -1.6070    -1.3840 hc         1 JPS       0.053200
     24 HA01         1.9980    -0.9390    -0.2700 hc         1 JPS       0.069700
     25 HA02         1.9980     0.9390    -0.2700 hc         1 JPS       0.069700
     26 HA11         0.7650    -0.9390     1.8650 hc         1 JPS       0.069700
     27 HA12         0.7650     0.9390     1.8650 hc         1 JPS       0.069700
     28 HAH1        -2.4330    -0.2830    -1.1910 hc         1 JPS       0.047700
     29 HAH2        -2.5690    -0.7450     0.5110 hc         1 JPS       0.047700
     30 HAI         -3.2320    -3.1730     1.0480 ha         1 JPS       0.188000
     31 HAQ         -5.6040    -5.0260    -3.1900 h1         1 JPS       0.049700
     32 HAF         -3.6870    -6.7860     1.4310 ho         1 JPS       0.415000
     33 HAJ1        -5.7760    -7.2390    -0.2160 hc         1 JPS       0.064700
     34 HAJ2        -6.3710    -5.7200    -0.9090 hc         1 JPS       0.064700
     35 HAP         -3.8180    -7.0780    -1.8350 h1         1 JPS       0.061700
     36 HAD         -5.1540    -8.4210    -2.7920 ho         1 JPS       0.394000
     37 HAE         -4.1540    -5.2100    -4.7390 ho         1 JPS       0.391000
@<TRIPOS>BOND
     1     1     2 1
     2     1    19 1
     3     1    20 1
     4     2     3 1
     5     3     4 1
     6     4     5 2
     7     4     6 1
     8     5     8 1
     9     6     7 1
    10     7     8 2
    11     7    17 1
    12     8     9 1
    13     9    10 1
    14     9    13 1
    15     9    14 1
    16    10    11 1
    17    10    12 1
    18    14    15 1
    19    15    16 1
    20    15    17 1
    21    17    18 1
    22    19    20 1
    23     1    21 1
    24     2    22 1
    25     2    23 1
    26    19    24 1
    27    19    25 1
    28    20    26 1
    29    20    27 1
    30     3    28 1
    31     3    29 1
    32     5    30 1
    33    17    31 1
    34    13    32 1
    35    14    33 1
    36    14    34 1
    37    15    35 1
    38    16    36 1
    39    18    37 1
@<TRIPOS>SUBSTRUCTURE
     1 JPS         1 TEMP              0 ****  ****    0 ROOT
