@<TRIPOS>MOLECULE
JPV
   33    36     1     0     0
SMALL
bcc


@<TRIPOS>ATOM
      1 C10          0.0000     0.0000     0.0000 ca         1 JPV      -0.233200
      2 C13          1.4200     0.0000     2.3610 ca         1 JPV      -0.136000
      3 C15          1.4180     0.0000     0.0000 ca         1 JPV      -0.092800
      4 C17          3.2120     0.0020    -1.9660 c3         1 JPV       0.047800
      5 O01         -0.6710     2.0420    -3.7100 oh         1 JPV      -0.592800
      6 C02          0.5980     1.4960    -4.0760 c3         1 JPV       0.192100
      7 C03          1.7180     2.2530    -3.3510 c3         1 JPV       0.102800
      8 N04          3.0180     1.7060    -3.7470 n7         1 JPV      -0.574200
      9 C05          3.1530     0.2830    -3.4640 c3         1 JPV       0.121500
     10 C06          2.0330    -0.5250    -4.1170 c3         1 JPV      -0.006400
     11 C07          0.6760     0.0210    -3.6420 c3         1 JPV       0.030500
     12 C08          0.6860     0.0010    -2.1260 cc         1 JPV      -0.247300
     13 N09         -0.4070    -0.0030    -1.3030 na         1 JPV       0.399600
     14 C11         -0.7090     0.0070     1.2000 ca         1 JPV      -0.105000
     15 C12          0.0360     0.0070     2.3680 ca         1 JPV      -0.088000
     16 C14          2.1450     0.0000     1.1940 ca         1 JPV      -0.045000
     17 C16          1.8190     0.0020    -1.3930 cd         1 JPV      -0.163400
     18 H131         1.9490     0.0010     3.3060 ha         1 JPV       0.097000
     19 H171         3.6680    -0.9670    -1.8000 hc         1 JPV       0.020200
     20 H172         3.8010     0.7700    -1.4790 hc         1 JPV       0.020200
     21 H021         0.7410     1.5700    -5.1470 h1         1 JPV       0.014700
     22 H031         1.5920     2.1430    -2.2810 h1         1 JPV       0.028700
     23 H032         1.6730     3.3020    -3.6180 h1         1 JPV       0.028700
     24 H041         3.7480     2.2090    -3.2820 hn         1 JPV       0.258800
     25 H051         4.0890    -0.0490    -3.8960 h1         1 JPV       0.027700
     26 H062         2.1250    -1.5670    -3.8330 hc         1 JPV       0.024200
     27 H061         2.1030    -0.4360    -5.1940 hc         1 JPV       0.024200
     28 H071        -0.1480    -0.5560    -4.0430 hc         1 JPV       0.034700
     29 H091        -1.3600    -0.0070    -1.6090 hn         1 JPV       0.116700
     30 H111        -1.7920     0.0120     1.2180 ha         1 JPV       0.105000
     31 H121        -0.4830     0.0070     3.3190 ha         1 JPV       0.096000
     32 H141         3.2280    -0.0060     1.2000 ha         1 JPV       0.105000
     33 H011        -1.0620     2.4590    -4.4610 ho         1 JPV       0.392000
@<TRIPOS>BOND
     1     1     3 ar  
     2     1    13 1   
     3     1    14 ar  
     4     2    15 ar  
     5     2    16 ar  
     6     2    18 1   
     7     3    16 ar  
     8     3    17 1   
     9     4     9 1   
    10     4    17 1   
    11     4    19 1   
    12     4    20 1   
    13     5     6 1   
    14     5    33 1   
    15     6     7 1   
    16     6    11 1   
    17     6    21 1   
    18     7     8 1   
    19     7    22 1   
    20     7    23 1   
    21     8     9 1   
    22     8    24 1   
    23     9    10 1   
    24     9    25 1   
    25    10    11 1   
    26    10    26 1   
    27    10    27 1   
    28    11    12 1   
    29    11    28 1   
    30    12    13 1   
    31    12    17 2   
    32    13    29 1   
    33    14    15 ar  
    34    14    30 1   
    35    15    31 1   
    36    16    32 1   
@<TRIPOS>SUBSTRUCTURE
     1 JPV         1 TEMP              0 ****  ****    0 ROOT
