@<TRIPOS>MOLECULE
molecule
   36    39     1     0     0
SMALL
bcc


@<TRIPOS>ATOM
      1 C1           0.0000     0.0000     0.0000 c3         1 JPY      -0.171100
      2 C4           1.5070     0.0000     0.0000 c          1 JPY       0.654100
      3 O2           2.1140     0.0000     1.0500 o          1 JPY      -0.610100
      4 N1           2.1820    -0.0010    -1.1680 ns         1 JPY      -0.589900
      5 C5           3.6470    -0.0010    -1.1670 c3         1 JPY       0.160300
      6 C6           4.1490    -0.0020    -2.5880 ca         1 JPY      -0.108300
      7 C21          4.1900     1.2500    -3.3640 ca         1 JPY      -0.026000
      8 C10          4.6920     1.1800    -4.7490 ca         1 JPY      -0.021000
      9 C20          3.7980     2.4000    -2.8700 ca         1 JPY      -0.116000
     10 C19          3.8630     3.6220    -3.7010 ca         1 JPY      -0.110000
     11 C12          4.3110     3.5550    -4.9320 ca         1 JPY      -0.034000
     12 C13          4.4010     4.7340    -5.8110 ca         1 JPY      -0.113000
     13 C14          4.8600     4.5930    -7.0360 ca         1 JPY      -0.123000
     14 C15          5.2950     3.2990    -7.5770 ca         1 JPY      -0.106000
     15 C16          5.2510     2.1970    -6.8670 ca         1 JPY      -0.035000
     16 C11          4.7500     2.2580    -5.4820 ca         1 JPY      -0.014000
     17 C17          5.6870     0.9020    -7.4150 ca         1 JPY      -0.110000
     18 C18          5.6310    -0.1880    -6.6730 ca         1 JPY      -0.118000
     19 C9           5.1280    -0.1200    -5.2910 ca         1 JPY      -0.022000
     20 C8           5.0590    -1.1840    -4.5270 ca         1 JPY      -0.118000
     21 C7           4.5620    -1.1200    -3.1460 ca         1 JPY      -0.099000
     22 H1          -0.3610    -0.8710    -0.5330 hc         1 JPY       0.061033
     23 H2          -0.3610    -0.0250     1.0210 hc         1 JPY       0.061033
     24 H3          -0.3610     0.8970    -0.4880 hc         1 JPY       0.061033
     25 H4           1.6820    -0.0440    -2.0340 hn         1 JPY       0.319500
     26 H5           4.0080     0.8830    -0.6570 h1         1 JPY       0.060700
     27 H6           4.0080    -0.8860    -0.6560 h1         1 JPY       0.060700
     28 H7           3.4680     2.4630    -1.8400 ha         1 JPY       0.143000
     29 H8           3.5400     4.5720    -3.2930 ha         1 JPY       0.136000
     30 H9           4.0910     5.7080    -5.4520 ha         1 JPY       0.135000
     31 H10          4.9190     5.4680    -7.6720 ha         1 JPY       0.128000
     32 H11          5.6630     3.2530    -8.5950 ha         1 JPY       0.130000
     33 H12          6.0570     0.8430    -8.4310 ha         1 JPY       0.135000
     34 H13          5.9550    -1.1370    -7.0820 ha         1 JPY       0.135000
     35 H14          5.3830    -2.1380    -4.9240 ha         1 JPY       0.132000
     36 H15          4.5340    -2.0320    -2.5630 ha         1 JPY       0.132000
@<TRIPOS>BOND
     1    17    18 ar
     2    17    15 ar
     3    18    19 ar
     4    14    15 ar
     5    14    13 ar
     6    15    16 ar
     7    19    20 ar
     8    19     8 ar
     9    20    21 ar
    10    13    12 ar
    11    16     8 ar
    12    16    11 ar
    13     8     7 ar
    14    21     6 ar
    15    12    11 ar
    16    11    10 ar
    17     7     6 ar
    18     7     9 ar
    19     6     5 1
    20    10     9 ar
    21     5     4 1
    22     4     2 1
    23     2     3 2
    24     2     1 1
    25     1    22 1
    26     1    23 1
    27     1    24 1
    28     4    25 1
    29     5    26 1
    30     5    27 1
    31     9    28 1
    32    10    29 1
    33    12    30 1
    34    13    31 1
    35    14    32 1
    36    17    33 1
    37    18    34 1
    38    20    35 1
    39    21    36 1
@<TRIPOS>SUBSTRUCTURE
     1 JPY         1 TEMP              0 ****  ****    0 ROOT
