@<TRIPOS>MOLECULE
molecule
   17    18     1     0     0
SMALL
bcc


@<TRIPOS>ATOM
      1 C9           0.0000     0.0000     0.0000 ca         1 JPZ      -0.166000
      2 C8           1.3870     0.0000     0.0000 ca         1 JPZ      -0.072000
      3 C10         -0.7000     0.0000     1.1880 ca         1 JPZ      -0.035000
      4 C7           2.0920     0.0000     1.1850 ca         1 JPZ      -0.185000
      5 C4           1.3690     0.0000     4.7580 cc         1 JPZ       0.693100
      6 C11         -0.0010     0.0000     2.3930 ca         1 JPZ      -0.220600
      7 C6           1.4060     0.0000     2.3930 ca         1 JPZ       0.159600
      8 C2          -0.6890     0.0000     3.6960 c          1 JPZ       0.719100
      9 N5           2.0630    -0.0000     3.6060 na         1 JPZ      -0.708600
     10 N3           0.0660     0.0000     4.8110 nd         1 JPZ      -0.722100
     11 O1          -1.9070     0.0000     3.7640 o          1 JPZ      -0.538100
     12 H9          -0.5380     0.0000    -0.9410 ha         1 JPZ       0.139000
     13 H8           1.9230     0.0000    -0.9420 ha         1 JPZ       0.136000
     14 H10         -1.7830     0.0000     1.1850 ha         1 JPZ       0.162000
     15 H7           3.1750    -0.0000     1.1750 ha         1 JPZ       0.133000
     16 H4           1.9210    -0.0000     5.6900 h5         1 JPZ       0.054800
     17 H6           3.0630    -0.0000     3.6300 hn         1 JPZ       0.450800
@<TRIPOS>BOND
     1     1     2 ar
     2     1     3 ar
     3     1    12 1
     4     2     4 ar
     5     2    13 1
     6     3     6 ar
     7     3    14 1
     8     4     7 ar
     9     4    15 1
    10     5     9 1
    11     5    10 2
    12     5    16 1
    13     6     7 ar
    14     6     8 1
    15     7     9 1
    16     8    10 1
    17     8    11 2
    18     9    17 1
@<TRIPOS>SUBSTRUCTURE
     1 JPZ         1 TEMP              0 ****  ****    0 ROOT
