@<TRIPOS>MOLECULE
molecule
   57    60     1     0     0
SMALL
bcc


@<TRIPOS>ATOM
      1 CAA          0.0000     0.0000     0.0000 c3         1 JQ1      -0.128400
      2 CAB          3.4850     2.6890    -3.9080 c3         1 JQ1      -0.026800
      3 CAC          5.8050     1.3120    -2.6420 c3         1 JQ1      -0.040800
      4 CAD          8.7710     3.4140     1.2650 c3         1 JQ1      -0.106767
      5 CAE          8.0910     4.1260     3.5620 c3         1 JQ1      -0.106767
      6 CAF          8.1000     5.7830     1.6920 c3         1 JQ1      -0.106767
      7 OAG          6.8410     1.9430     2.5090 o          1 JQ1      -0.528000
      8 CAI          6.6250    -2.3350    -2.5690 ca         1 JQ1      -0.126000
      9 CAJ          8.3950    -1.6030    -1.1210 ca         1 JQ1      -0.126000
     10 CAK          5.7210    -1.5740    -1.8570 ca         1 JQ1      -0.081000
     11 CAL          7.4990    -0.8380    -0.4030 ca         1 JQ1      -0.081000
     12 CAM          4.6430     2.3120     1.7420 c3         1 JQ1      -0.163400
     13 NAN          5.2930     0.0000     1.2920 n2         1 JQ1      -0.555900
     14 NAO          0.9460    -0.2300     2.3070 n2         1 JQ1      -0.439800
     15 NAP          2.1860     0.0040     2.9240 na         1 JQ1       0.021400
     16 OAQ          6.4570     3.9870     1.7610 os         1 JQ1      -0.416900
     17 SAR          1.9870     1.8580    -1.5770 ss         1 JQ1      -0.025800
     18 CAS          6.0610     2.7340     2.0330 c          1 JQ1       0.639100
     19 CAT          5.1870     0.0000     0.0000 ce         1 JQ1       0.566500
     20 CAU          7.9600    -2.3500    -2.2020 ca         1 JQ1       0.057400
     21 CAV          1.0800     0.0910     1.0470 cc         1 JQ1       0.452800
     22 CAW          6.1530    -0.8190    -0.7670 ca         1 JQ1      -0.169900
     23 CAX          3.4220     1.9810    -2.5800 cd         1 JQ1       0.021600
     24 CAY          4.4400     1.3630    -2.0060 cc         1 JQ1      -0.096300
     25 CAZ          3.0100     0.4610     1.9680 cc         1 JQ1       0.028100
     26 CBA          4.1730     0.7570    -0.7640 cc         1 JQ1      -0.148900
     27 CBB          2.8650     0.9470    -0.3570 cd         1 JQ1      -0.083300
     28 CBC          4.4550     0.8480     2.1410 c3         1 JQ1       0.196800
     29 NBD          2.3340     0.5130     0.8400 na         1 JQ1      -0.024000
     30 CBE          7.8370     4.3230     2.0660 c3         1 JQ1       0.158800
     31 HAA         -0.8670    -0.4970     0.4180 hc         1 JQ1       0.094367
     32 HAAA         0.3660    -0.5660    -0.8480 hc         1 JQ1       0.094367
     33 HAAB        -0.2750     0.9970    -0.3220 hc         1 JQ1       0.094367
     34 HAB          4.1820     3.5150    -3.8440 hc         1 JQ1       0.070700
     35 HABA         2.5010     3.0660    -4.1630 hc         1 JQ1       0.070700
     36 HABB         3.8150     1.9960    -4.6720 hc         1 JQ1       0.070700
     37 HAC          6.0190     2.2620    -3.1150 hc         1 JQ1       0.064700
     38 HACA         6.5500     1.1100    -1.8820 hc         1 JQ1       0.064700
     39 HACB         5.8270     0.5250    -3.3860 hc         1 JQ1       0.064700
     40 HAD          8.8530     2.4540     1.7600 hc         1 JQ1       0.054367
     41 HADA         9.7510     3.8720     1.2000 hc         1 JQ1       0.054367
     42 HADB         8.3720     3.2740     0.2680 hc         1 JQ1       0.054367
     43 HAE          8.9110     4.7610     3.8760 hc         1 JQ1       0.054367
     44 HAEA         8.3430     3.0900     3.7530 hc         1 JQ1       0.054367
     45 HAEB         7.1980     4.3890     4.1180 hc         1 JQ1       0.054367
     46 HAF          7.4390     6.4270     2.2600 hc         1 JQ1       0.054367
     47 HAFA         7.9180     5.9230     0.6330 hc         1 JQ1       0.054367
     48 HAFB         9.1300     6.0340     1.9170 hc         1 JQ1       0.054367
     49 HAI          6.2890    -2.9220    -3.4150 ha         1 JQ1       0.161000
     50 HAJ          9.4410    -1.6180    -0.8390 ha         1 JQ1       0.161000
     51 HAK          4.6760    -1.5630    -2.1440 ha         1 JQ1       0.150500
     52 HAL          7.8410    -0.2540     0.4430 ha         1 JQ1       0.150500
     53 HAM          4.4420     2.4270     0.6840 hc         1 JQ1       0.090200
     54 HAMA         3.9590     2.9320     2.3090 hc         1 JQ1       0.090200
     55 HNAP         2.4120    -0.1430     3.8880 hn         1 JQ1       0.395700
     56 HBC          4.7420     0.7120     3.1770 h1         1 JQ1       0.135700
     57 ClAH         9.0930    -3.3110    -3.1020 cl         1 JQ1      -0.070400
@<TRIPOS>BOND
     1     1    21 1
     2     2    23 1
     3     3    24 1
     4     4    30 1
     5     5    30 1
     6     6    30 1
     7     7    18 2
     8    57    20 1
     9     8    10 ar
    10     8    20 ar
    11     9    11 ar
    12     9    20 ar
    13    10    22 ar
    14    11    22 ar
    15    12    18 1
    16    12    28 1
    17    13    19 2
    18    13    28 1
    19    14    15 1
    20    14    21 2
    21    15    25 2
    22    16    18 1
    23    16    30 1
    24    17    23 1
    25    17    27 1
    26    19    22 1
    27    19    26 1
    28    21    29 1
    29    23    24 2
    30    24    26 1
    31    25    28 1
    32    25    29 1
    33    26    27 2
    34    27    29 1
    35     1    31 1
    36     1    32 1
    37     1    33 1
    38     2    34 1
    39     2    35 1
    40     2    36 1
    41     3    37 1
    42     3    38 1
    43     3    39 1
    44     4    40 1
    45     4    41 1
    46     4    42 1
    47     5    43 1
    48     5    44 1
    49     5    45 1
    50     6    46 1
    51     6    47 1
    52     6    48 1
    53     8    49 1
    54     9    50 1
    55    10    51 1
    56    11    52 1
    57    12    53 1
    58    12    54 1
    59    15    55 1
    60    28    56 1
@<TRIPOS>SUBSTRUCTURE
     1 JQ1         1 TEMP              0 ****  ****    0 ROOT
