@<TRIPOS>MOLECULE
JQ1
   57    60     1     0     0
SMALL
bcc


@<TRIPOS>ATOM
      1 CAA          0.0000     0.0000     0.0000 c3         1 JQ1      -0.016400
      2 CAB          3.4850     2.6890    -3.9080 c3         1 JQ1       0.089200
      3 CAC          5.8050     1.3120    -2.6420 c3         1 JQ1       0.046200
      4 CAD          8.7710     3.4140     1.2650 c3         1 JQ1      -0.028100
      5 CAE          8.0910     4.1260     3.5620 c3         1 JQ1      -0.028100
      6 CAF          8.1000     5.7830     1.6920 c3         1 JQ1      -0.028100
      7 OAG          6.8410     1.9430     2.5090 o          1 JQ1      -0.561000
      8 CAI          6.6250    -2.3350    -2.5690 ca         1 JQ1      -0.099500
      9 CAJ          8.3950    -1.6030    -1.1210 ca         1 JQ1      -0.099500
     10 CAK          5.7210    -1.5740    -1.8570 ca         1 JQ1      -0.055000
     11 CAL          7.4990    -0.8380    -0.4030 ca         1 JQ1      -0.055000
     12 CAM          4.6430     2.3120     1.7420 c3         1 JQ1      -0.128400
     13 NAN          5.2930     0.0000     1.2920 n2         1 JQ1      -0.484900
     14 NAO          0.9460    -0.2300     2.3070 n2         1 JQ1      -0.566800
     15 NAP          2.1860     0.0040     2.9240 na         1 JQ1       0.566400
     16 OAQ          6.4570     3.9870     1.7610 os         1 JQ1      -0.400900
     17 SAR          1.9870     1.8580    -1.5770 ss         1 JQ1      -0.151800
     18 CAS          6.0610     2.7340     2.0330 c          1 JQ1       0.699100
     19 CAT          5.1870     0.0000     0.0000 ce         1 JQ1       0.525500
     20 CAU          7.9600    -2.3500    -2.2020 ca         1 JQ1      -0.014600
     21 CAV          1.0800     0.0910     1.0470 cc         1 JQ1       0.268800
     22 CAW          6.1530    -0.8190    -0.7670 ca         1 JQ1      -0.187900
     23 CAX          3.4220     1.9810    -2.5800 cd         1 JQ1       0.103600
     24 CAY          4.4400     1.3630    -2.0060 cc         1 JQ1      -0.117300
     25 CAZ          3.0100     0.4610     1.9680 cc         1 JQ1      -0.413900
     26 CBA          4.1730     0.7570    -0.7640 cc         1 JQ1      -0.067900
     27 CBB          2.8650     0.9470    -0.3570 cd         1 JQ1      -0.267300
     28 CBC          4.4550     0.8480     2.1410 c3         1 JQ1       0.233800
     29 NBD          2.3340     0.5130     0.8400 na         1 JQ1       0.599000
     30 CBE          7.8370     4.3230     2.0660 c3         1 JQ1       0.179800
     31 HAA         -0.8670    -0.4970     0.4180 hc         1 JQ1       0.049700
     32 HAAA         0.3660    -0.5660    -0.8480 hc         1 JQ1       0.049700
     33 HAAB        -0.2750     0.9970    -0.3220 hc         1 JQ1       0.049700
     34 HAB          4.1820     3.5150    -3.8440 hc         1 JQ1       0.033033
     35 HABA         2.5010     3.0660    -4.1630 hc         1 JQ1       0.033033
     36 HABB         3.8150     1.9960    -4.6720 hc         1 JQ1       0.033033
     37 HAC          6.0190     2.2620    -3.1150 hc         1 JQ1       0.033700
     38 HACA         6.5500     1.1100    -1.8820 hc         1 JQ1       0.033700
     39 HACB         5.8270     0.5250    -3.3860 hc         1 JQ1       0.033700
     40 HAD          8.8530     2.4540     1.7600 hc         1 JQ1       0.022811
     41 HADA         9.7510     3.8720     1.2000 hc         1 JQ1       0.022811
     42 HADB         8.3720     3.2740     0.2680 hc         1 JQ1       0.022811
     43 HAE          8.9110     4.7610     3.8760 hc         1 JQ1       0.022811
     44 HAEA         8.3430     3.0900     3.7530 hc         1 JQ1       0.022811
     45 HAEB         7.1980     4.3890     4.1180 hc         1 JQ1       0.022811
     46 HAF          7.4390     6.4270     2.2600 hc         1 JQ1       0.022811
     47 HAFA         7.9180     5.9230     0.6330 hc         1 JQ1       0.022811
     48 HAFB         9.1300     6.0340     1.9170 hc         1 JQ1       0.022811
     49 HAI          6.2890    -2.9220    -3.4150 ha         1 JQ1       0.127500
     50 HAJ          9.4410    -1.6180    -0.8390 ha         1 JQ1       0.127500
     51 HAK          4.6760    -1.5630    -2.1440 ha         1 JQ1       0.117500
     52 HAL          7.8410    -0.2540     0.4430 ha         1 JQ1       0.117500
     53 HAM          4.4420     2.4270     0.6840 hc         1 JQ1       0.055700
     54 HAMA         3.9590     2.9320     2.3090 hc         1 JQ1       0.055700
     55 HNAP         2.4120    -0.1430     3.8880 hn         1 JQ1       0.198700
     56 HBC          4.7420     0.7120     3.1770 h1         1 JQ1       0.083700
     57 ClAH         9.0930    -3.3110    -3.1020 cl         1 JQ1       0.020600
@<TRIPOS>BOND
     1     1    21 1   
     2     1    31 1   
     3     1    32 1   
     4     1    33 1   
     5     2    23 1   
     6     2    34 1   
     7     2    35 1   
     8     2    36 1   
     9     3    24 1   
    10     3    37 1   
    11     3    38 1   
    12     3    39 1   
    13     4    30 1   
    14     4    40 1   
    15     4    41 1   
    16     4    42 1   
    17     5    30 1   
    18     5    43 1   
    19     5    44 1   
    20     5    45 1   
    21     6    30 1   
    22     6    46 1   
    23     6    47 1   
    24     6    48 1   
    25     7    18 2   
    26     8    10 ar  
    27     8    20 ar  
    28     8    49 1   
    29     9    11 ar  
    30     9    20 ar  
    31     9    50 1   
    32    10    22 ar  
    33    10    51 1   
    34    11    22 ar  
    35    11    52 1   
    36    12    18 1   
    37    12    28 1   
    38    12    53 1   
    39    12    54 1   
    40    13    19 2   
    41    13    28 1   
    42    14    15 1   
    43    14    21 2   
    44    15    25 2   
    45    15    55 1   
    46    16    18 1   
    47    16    30 1   
    48    17    23 1   
    49    17    27 1   
    50    19    22 1   
    51    19    26 1   
    52    20    57 1   
    53    21    29 1   
    54    23    24 2   
    55    24    26 1   
    56    25    28 1   
    57    25    29 1   
    58    26    27 2   
    59    27    29 1   
    60    28    56 1   
@<TRIPOS>SUBSTRUCTURE
     1 JQ1         1 TEMP              0 ****  ****    0 ROOT
