@<TRIPOS>MOLECULE
molecule
   38    39     1     0     0
SMALL
bcc


@<TRIPOS>ATOM
      1 C10          0.0000     0.0000     0.0000 c3         1 JQ4       0.155800
      2 C13          0.0130     1.2460     2.1750 c3         1 JQ4      -0.081400
      3 C17          4.0460     1.7450     1.7870 c3         1 JQ4      -0.251300
      4 C01          2.0410    -2.5360    -2.8480 c3         1 JQ4      -0.094100
      5 C02          1.4000    -1.3800    -2.0790 c3         1 JQ4      -0.103400
      6 C03          2.0590    -1.2540    -0.7040 c3         1 JQ4       0.124100
      7 O04          1.7470    -2.4060     0.0820 oh         1 JQ4      -0.604800
      8 C05          1.5360     0.0000     0.0000 c3         1 JQ4       0.261500
      9 N06          1.9610     0.0000     1.4140 n3         1 JQ4      -0.807500
     10 C07          0.8730     0.0010     2.4130 c3         1 JQ4       0.245500
     11 C08          0.0120    -1.2450     2.1760 c3         1 JQ4      -0.081400
     12 C09         -0.5000    -1.2570     0.7180 c3         1 JQ4      -0.099400
     13 O11         -0.4820     0.0090    -1.3450 oh         1 JQ4      -0.596800
     14 C12         -0.4990     1.2480     0.7330 c3         1 JQ4      -0.099400
     15 S14          3.5580    -0.0010     1.8520 s6         1 JQ4       1.338900
     16 O15          4.2030    -0.7380     0.8230 o          1 JQ4      -0.633300
     17 O16          3.5530    -0.4670     3.1940 o          1 JQ4      -0.633300
     18 H131        -0.8300     1.2380     2.8560 hc         1 JQ4       0.049950
     19 H132         0.6080     2.1340     2.3480 hc         1 JQ4       0.049950
     20 H171         3.5340     2.2920     2.5700 h1         1 JQ4       0.095700
     21 H173         5.1160     1.8260     1.9320 h1         1 JQ4       0.095700
     22 H172         3.7790     2.1590     0.8230 h1         1 JQ4       0.095700
     23 H013         3.1190    -2.4610    -2.7810 hc         1 JQ4       0.032033
     24 H011         1.7400    -2.4900    -3.8870 hc         1 JQ4       0.032033
     25 H012         1.7180    -3.4780    -2.4200 hc         1 JQ4       0.032033
     26 H021         0.3410    -1.5720    -1.9560 hc         1 JQ4       0.065200
     27 H031         3.1330    -1.1790    -0.8240 h1         1 JQ4       0.077700
     28 H041         2.4780    -3.0020     0.0700 ho         1 JQ4       0.404000
     29 H051         1.9060     0.8870    -0.4990 h1         1 JQ4       0.053700
     30 H071         1.2770     0.0010     3.4180 h1         1 JQ4       0.087700
     31 H082        -0.8330    -1.2330     2.8540 hc         1 JQ4       0.049950
     32 H081         0.6050    -2.1340     2.3560 hc         1 JQ4       0.049950
     33 H091        -1.5830    -1.2700     0.7140 hc         1 JQ4       0.056950
     34 H092        -0.1250    -2.1370     0.2090 hc         1 JQ4       0.056950
     35 H111        -1.2650     0.5310    -1.3950 ho         1 JQ4       0.397000
     36 H122        -0.1360     2.1330     0.2240 hc         1 JQ4       0.056950
     37 H121        -1.5820     1.2540     0.7360 hc         1 JQ4       0.056950
     38 H022         1.5380    -0.4590    -2.6310 hc         1 JQ4       0.065200
@<TRIPOS>BOND
     1    11    10 1
     2    11    12 1
     3    10     2 1
     4    10     9 1
     5     2    14 1
     6    17    15 2
     7    12     1 1
     8    16    15 2
     9    14     1 1
    10     9    15 1
    11     9     8 1
    12    15     3 1
    13     1     8 1
    14     1    13 1
    15     8     6 1
    16     7     6 1
    17     6     5 1
    18     5     4 1
    19     2    18 1
    20     2    19 1
    21     3    20 1
    22     3    21 1
    23     3    22 1
    24     4    23 1
    25     4    24 1
    26     4    25 1
    27     5    38 1
    28     5    26 1
    29     6    27 1
    30     7    28 1
    31     8    29 1
    32    10    30 1
    33    11    31 1
    34    11    32 1
    35    12    33 1
    36    12    34 1
    37    13    35 1
    38    14    36 1
    39    14    37 1
@<TRIPOS>SUBSTRUCTURE
     1 JQ4         1 TEMP              0 ****  ****    0 ROOT
