@<TRIPOS>MOLECULE
JQ7
   30    31     1     0     0
SMALL
bcc


@<TRIPOS>ATOM
      1 C10          0.0000     0.0000     0.0000 ca         1 JQ7      -0.092000
      2 C13          1.3510    -0.0420     2.3990 ca         1 JQ7       0.016000
      3 N01          5.9640    -3.1620    -1.5040 nz         1 JQ7       0.196600
      4 C02          5.0470    -2.2620    -1.0970 c          1 JQ7       0.278100
      5 O03          3.8750    -2.5670    -1.0540 o          1 JQ7      -0.390100
      6 C04          5.4780    -0.8700    -0.7110 c3         1 JQ7       0.208800
      7 N05          4.3030    -0.0850    -0.3230 n3         1 JQ7      -0.528500
      8 C06          3.4660     0.6220    -1.3130 c3         1 JQ7       0.204800
      9 C07          2.0820    -0.0050    -1.3330 c3         1 JQ7       0.217400
     10 O08          1.2720     0.7110    -2.2670 oh         1 JQ7      -0.557800
     11 C09          1.3920     0.0000     0.0000 ca         1 JQ7      -0.035300
     12 C11         -0.7050    -0.0200     1.1840 ca         1 JQ7      -0.036000
     13 C12         -0.0320    -0.0460     2.3910 ca         1 JQ7      -0.102000
     14 C14          2.0550     0.0000     1.2090 ca         1 JQ7      -0.119500
     15 S15          3.8200     0.0700     1.2640 sy         1 JQ7       1.051200
     16 O16          4.1650     1.3870     1.6710 o          1 JQ7      -0.564800
     17 O17          4.2560    -1.1000     1.9430 o          1 JQ7      -0.564800
     18 H101        -0.5360     0.0210    -0.9410 ha         1 JQ7       0.126000
     19 H131         1.8850    -0.0630     3.3410 ha         1 JQ7       0.117000
     20 H012         6.4450    -2.8080    -2.3080 hn         1 JQ7       0.246467
     21 H011         6.6220    -3.3240    -0.7680 hn         1 JQ7       0.246467
     22 H042         5.9670    -0.3960    -1.5530 h1         1 JQ7       0.056700
     23 H041         6.1670    -0.9230     0.1230 h1         1 JQ7       0.056700
     24 H061         3.9150     0.5110    -2.2930 h1         1 JQ7       0.040700
     25 H062         3.3770     1.6600    -1.0180 h1         1 JQ7       0.040700
     26 H071         2.1750    -1.0310    -1.6660 h1         1 JQ7       0.006700
     27 H081         1.2650     0.2530    -3.0920 ho         1 JQ7       0.396000
     28 H111        -1.7880    -0.0220     1.1690 ha         1 JQ7       0.115000
     29 H121        -0.5830    -0.0620     3.3240 ha         1 JQ7       0.121000
     30 H013         5.5080    -4.0200    -1.7400 hn         1 JQ7       0.246467
@<TRIPOS>BOND
     1     1    11 ar  
     2     1    12 ar  
     3     1    18 1   
     4     2    13 ar  
     5     2    14 ar  
     6     2    19 1   
     7     3     4 1   
     8     3    20 1   
     9     3    21 1   
    10     3    30 1   
    11     4     5 2   
    12     4     6 1   
    13     6     7 1   
    14     6    22 1   
    15     6    23 1   
    16     7     8 1   
    17     7    15 1   
    18     8     9 1   
    19     8    24 1   
    20     8    25 1   
    21     9    10 1   
    22     9    11 1   
    23     9    26 1   
    24    10    27 1   
    25    11    14 ar  
    26    12    13 ar  
    27    12    28 1   
    28    13    29 1   
    29    14    15 1   
    30    15    16 2   
    31    15    17 2   
@<TRIPOS>SUBSTRUCTURE
     1 JQ7         1 TEMP              0 ****  ****    0 ROOT
