@<TRIPOS>MOLECULE
molecule
   30    31     1     0     0
SMALL
bcc


@<TRIPOS>ATOM
      1 C10          0.0000     0.0000     0.0000 ca         1 JQ7      -0.110000
      2 C13          1.3510    -0.0420     2.3990 ca         1 JQ7      -0.024000
      3 N01          5.9640    -3.1620    -1.5040 nz         1 JQ7      -0.686400
      4 C02          5.0470    -2.2620    -1.0970 c          1 JQ7       0.449100
      5 O03          3.8750    -2.5670    -1.0540 o          1 JQ7      -0.383100
      6 C04          5.4780    -0.8700    -0.7110 c3         1 JQ7       0.193800
      7 N05          4.3030    -0.0850    -0.3230 n3         1 JQ7      -0.799500
      8 C06          3.4660     0.6220    -1.3130 c3         1 JQ7       0.199800
      9 C07          2.0820    -0.0050    -1.3330 c3         1 JQ7       0.164400
     10 O08          1.2720     0.7110    -2.2670 oh         1 JQ7      -0.574800
     11 C09          1.3920     0.0000     0.0000 ca         1 JQ7      -0.020300
     12 C11         -0.7050    -0.0200     1.1840 ca         1 JQ7      -0.067000
     13 C12         -0.0320    -0.0460     2.3910 ca         1 JQ7      -0.121000
     14 C14          2.0550     0.0000     1.2090 ca         1 JQ7      -0.276500
     15 S15          3.8200     0.0700     1.2640 sy         1 JQ7       1.403200
     16 O16          4.1650     1.3870     1.6710 o          1 JQ7      -0.610800
     17 O17          4.2560    -1.1000     1.9430 o          1 JQ7      -0.610800
     18 H101        -0.5360     0.0210    -0.9410 ha         1 JQ7       0.154000
     19 H131         1.8850    -0.0630     3.3410 ha         1 JQ7       0.148000
     20 H012         6.4450    -2.8080    -2.3080 hn         1 JQ7       0.478467
     21 H011         6.6220    -3.3240    -0.7680 hn         1 JQ7       0.478467
     22 H042         5.9670    -0.3960    -1.5530 h1         1 JQ7       0.102200
     23 H041         6.1670    -0.9230     0.1230 h1         1 JQ7       0.102200
     24 H061         3.9150     0.5110    -2.2930 h1         1 JQ7       0.082700
     25 H062         3.3770     1.6600    -1.0180 h1         1 JQ7       0.082700
     26 H071         2.1750    -1.0310    -1.6660 h1         1 JQ7       0.046700
     27 H081         1.2650     0.2530    -3.0920 ho         1 JQ7       0.412000
     28 H111        -1.7880    -0.0220     1.1690 ha         1 JQ7       0.151000
     29 H121        -0.5830    -0.0620     3.3240 ha         1 JQ7       0.154000
     30 H013         5.5080    -4.0200    -1.7400 hn         1 JQ7       0.478467
@<TRIPOS>BOND
     1     8     9 1
     2     8     7 1
     3     9    10 1
     4     9    11 1
     5     6     7 1
     6     6     4 1
     7     7    15 1
     8    11     1 ar
     9    11    14 ar
    10     1    12 ar
    11    17    15 2
    12     4     3 1
    13     4     5 2
    14    15    14 1
    15    15    16 2
    16    14     2 ar
    17    12    13 ar
    18     2    13 ar
    19     1    18 1
    20     2    19 1
    21     3    20 1
    22     3    21 1
    23     6    22 1
    24     6    23 1
    25     8    24 1
    26     8    25 1
    27     9    26 1
    28    10    27 1
    29    12    28 1
    30    13    29 1
    31    30     3 1
@<TRIPOS>SUBSTRUCTURE
     1 JQ7         1 TEMP              0 ****  ****    0 ROOT
