@<TRIPOS>MOLECULE
JQA
   40    43     1     0     0
SMALL
bcc


@<TRIPOS>ATOM
      1 N1           0.0000     0.0000     0.0000 n7         1 JQA      -0.569200
      2 C4           1.4460     0.0000     0.0000 c3         1 JQA       0.115500
      3 C5           2.2540     0.0000     1.2680 c3         1 JQA      -0.022400
      4 C6           3.2940     1.1710     1.3010 c3         1 JQA       0.017600
      5 C7           2.5140     2.4060     1.1650 c3         1 JQA      -0.066300
      6 C8           1.6620     2.3610    -0.1330 c3         1 JQA      -0.148700
      7 C13          4.4480     6.6250    -1.5920 ca         1 JQA      -0.105500
      8 C15          5.7500     4.6170    -1.6900 ca         1 JQA      -0.105500
      9 C1           1.2750     4.3430     1.2600 c          1 JQA       0.805600
     10 O2           0.1730     3.5280     1.2200 os         1 JQA      -0.377900
     11 C2           0.3480     2.2070     0.6970 c3         1 JQA       0.139100
     12 C3          -0.5790     1.3850    -0.1710 c3         1 JQA       0.156800
     13 C9           1.9440     1.1050    -0.9300 c3         1 JQA      -0.043400
     14 N2           2.5750     3.8310     1.3290 n          1 JQA      -0.165800
     15 C11          4.3400     5.0390     0.1990 ca         1 JQA      -0.132300
     16 C12          3.9390     6.2340    -0.3660 ca         1 JQA      -0.083000
     17 C14          5.3530     5.8170    -2.2530 ca         1 JQA      -0.097000
     18 C16          5.2400     4.2270    -0.4660 ca         1 JQA      -0.083000
     19 H4          -0.3340    -0.5940    -0.7330 hn         1 JQA       0.261800
     20 H5           1.7160    -0.9270    -0.4910 h1         1 JQA       0.010700
     21 H6           2.7830    -0.9420     1.3470 hc         1 JQA       0.026700
     22 H7           1.5820     0.1040     2.1120 hc         1 JQA       0.026700
     23 H8           3.7190     1.1810     2.2980 hc         1 JQA       0.035200
     24 H9           3.8910     1.0810     0.4020 hc         1 JQA       0.035200
     25 H10          1.7850     2.1950     1.9380 h1         1 JQA       0.034700
     26 H11          1.7030     3.2780    -0.7090 hc         1 JQA       0.080700
     27 H15          4.5190     4.0120     2.0550 h1         1 JQA       0.030700
     28 H14          3.5510     5.4910     2.1240 h1         1 JQA       0.030700
     29 H19          6.4570     3.9830    -2.2100 ha         1 JQA       0.103000
     30 H1           0.5840     1.5820     1.5490 h1         1 JQA       0.060700
     31 H2          -1.5960     1.4270     0.2020 h1         1 JQA       0.024700
     32 H3          -0.5230     1.7020    -1.2050 h1         1 JQA       0.024700
     33 H12          3.0030     0.9990    -1.1290 hc         1 JQA       0.033700
     34 H13          1.3950     1.1050    -1.8640 hc         1 JQA       0.033700
     35 H16          3.2290     6.8680     0.1520 ha         1 JQA       0.113000
     36 H18          5.7520     6.1230    -3.2120 ha         1 JQA       0.101000
     37 H20          5.5500     3.2880    -0.0250 ha         1 JQA       0.113000
     38 C10          3.7840     4.6130     1.5330 c3         1 JQA       0.143300
     39 O1           1.1240     5.5470     1.2340 o          1 JQA      -0.663500
     40 H17          4.1360     7.5630    -2.0340 ha         1 JQA       0.103000
@<TRIPOS>BOND
     1     1     2 1   
     2     1    12 1   
     3     1    19 1   
     4     2     3 1   
     5     2    13 1   
     6     2    20 1   
     7     3     4 1   
     8     3    21 1   
     9     3    22 1   
    10     4     5 1   
    11     4    23 1   
    12     4    24 1   
    13     5     6 1   
    14     5    14 1   
    15     5    25 1   
    16     6    11 1   
    17     6    13 1   
    18     6    26 1   
    19     7    16 ar  
    20     7    17 ar  
    21     7    40 1   
    22     8    17 ar  
    23     8    18 ar  
    24     8    29 1   
    25     9    10 1   
    26     9    14 1   
    27     9    39 2   
    28    10    11 1   
    29    11    12 1   
    30    11    30 1   
    31    12    31 1   
    32    12    32 1   
    33    13    33 1   
    34    13    34 1   
    35    14    38 1   
    36    15    16 ar  
    37    15    18 ar  
    38    15    38 1   
    39    16    35 1   
    40    17    36 1   
    41    18    37 1   
    42    27    38 1   
    43    28    38 1   
@<TRIPOS>SUBSTRUCTURE
     1 JQA         1 TEMP              0 ****  ****    0 ROOT
