@<TRIPOS>MOLECULE
JQD
   35    38     1     0     0
SMALL
bcc


@<TRIPOS>ATOM
      1 C13          0.0000     0.0000     0.0000 c3         1 JQD       0.102000
      2 C17         -0.5440     1.4490    -3.4720 c3         1 JQD      -0.122400
      3 C01          3.6950     6.8330     1.9100 c3         1 JQD       0.244700
      4 O02          3.2160     5.6570     2.5670 os         1 JQD      -0.305900
      5 C03          2.8980     4.5970     1.7780 ca         1 JQD       0.183100
      6 C04          3.0420     4.6830     0.4000 ca         1 JQD      -0.239000
      7 C05          2.7150     3.6090    -0.4000 ca         1 JQD      -0.012000
      8 C06          2.2390     2.4310     0.1600 ca         1 JQD      -0.195300
      9 C07          1.8710     1.2980    -0.7550 c3         1 JQD       0.207800
     10 C08          1.5510     0.0000     0.0000 c3         1 JQD      -0.141700
     11 C09          2.0810     0.0000     1.4210 c3         1 JQD       0.232400
     12 O10          1.6590     1.1890     2.0990 os         1 JQD      -0.306900
     13 C11          2.1050     2.3450     1.5350 ca         1 JQD       0.189100
     14 C12          2.4280     3.4230     2.3450 ca         1 JQD      -0.174000
     15 N14         -0.2810     0.6200    -1.3210 n          1 JQD      -0.120200
     16 N15          0.6150     1.6500    -1.4490 n3         1 JQD      -0.420600
     17 C16          0.8310     1.8700    -2.8920 c3         1 JQD       0.135800
     18 C18         -1.0690     0.5050    -2.4050 c          1 JQD       0.661500
     19 O19         -2.0320    -0.2260    -2.5100 o          1 JQD      -0.659500
     20 H132        -0.3240    -1.0320    -0.0520 h1         1 JQD       0.051200
     21 H131        -0.3240     0.6990     0.7610 h1         1 JQD       0.051200
     22 H172        -1.1950     2.3090    -3.5770 hc         1 JQD       0.047700
     23 H171        -0.4210     0.9320    -4.4150 hc         1 JQD       0.047700
     24 H011         2.9400     7.1960     1.2240 h1         1 JQD      -0.001633
     25 H012         4.5990     6.5980     1.3610 h1         1 JQD      -0.001633
     26 H013         3.9090     7.5970     2.6480 h1         1 JQD      -0.001633
     27 H041         3.4130     5.5970    -0.0470 ha         1 JQD       0.122000
     28 H051         2.8300     3.6850    -1.4750 ha         1 JQD       0.100000
     29 H071         2.6620     1.1270    -1.4760 h1         1 JQD       0.032700
     30 H081         1.9280    -0.8570    -0.5450 hc         1 JQD       0.045700
     31 H091         1.6760    -0.8590     1.9430 h1         1 JQD       0.021200
     32 H092         3.1630    -0.0160     1.3880 h1         1 JQD       0.021200
     33 H121         2.2510     3.3690     3.4130 ha         1 JQD       0.131000
     34 H162         1.5580     1.1400    -3.2250 h1         1 JQD       0.036700
     35 H161         0.9320     2.9380    -3.0450 h1         1 JQD       0.036700
@<TRIPOS>BOND
     1     1    10 1   
     2     1    15 1   
     3     1    20 1   
     4     1    21 1   
     5     2    17 1   
     6     2    18 1   
     7     2    22 1   
     8     2    23 1   
     9     3     4 1   
    10     3    24 1   
    11     3    25 1   
    12     3    26 1   
    13     4     5 1   
    14     5     6 ar  
    15     5    14 ar  
    16     6     7 ar  
    17     6    27 1   
    18     7     8 ar  
    19     7    28 1   
    20     8     9 1   
    21     8    13 ar  
    22     9    10 1   
    23     9    16 1   
    24     9    29 1   
    25    10    11 1   
    26    10    30 1   
    27    11    12 1   
    28    11    31 1   
    29    11    32 1   
    30    12    13 1   
    31    13    14 ar  
    32    14    33 1   
    33    15    16 1   
    34    15    18 1   
    35    16    17 1   
    36    17    34 1   
    37    17    35 1   
    38    18    19 2   
@<TRIPOS>SUBSTRUCTURE
     1 JQD         1 TEMP              0 ****  ****    0 ROOT
