@<TRIPOS>MOLECULE
molecule
   35    38     1     0     0
SMALL
bcc


@<TRIPOS>ATOM
      1 C13          0.0000     0.0000     0.0000 c3         1 JQD       0.144000
      2 C17         -0.5440     1.4490    -3.4720 c3         1 JQD      -0.175400
      3 C01          3.6950     6.8330     1.9100 c3         1 JQD       0.128700
      4 O02          3.2160     5.6570     2.5670 os         1 JQD      -0.324900
      5 C03          2.8980     4.5970     1.7780 ca         1 JQD       0.170100
      6 C04          3.0420     4.6830     0.4000 ca         1 JQD      -0.245000
      7 C05          2.7150     3.6090    -0.4000 ca         1 JQD      -0.047000
      8 C06          2.2390     2.4310     0.1600 ca         1 JQD      -0.169300
      9 C07          1.8710     1.2980    -0.7550 c3         1 JQD       0.201800
     10 C08          1.5510     0.0000     0.0000 c3         1 JQD      -0.157700
     11 C09          2.0810     0.0000     1.4210 c3         1 JQD       0.153400
     12 O10          1.6590     1.1890     2.0990 os         1 JQD      -0.323900
     13 C11          2.1050     2.3450     1.5350 ca         1 JQD       0.173100
     14 C12          2.4280     3.4230     2.3450 ca         1 JQD      -0.182000
     15 N14         -0.2810     0.6200    -1.3210 n          1 JQD      -0.388200
     16 N15          0.6150     1.6500    -1.4490 n3         1 JQD      -0.460600
     17 C16          0.8310     1.8700    -2.8920 c3         1 JQD       0.114800
     18 C18         -1.0690     0.5050    -2.4050 c          1 JQD       0.723500
     19 O19         -2.0320    -0.2260    -2.5100 o          1 JQD      -0.618500
     20 H132        -0.3240    -1.0320    -0.0520 h1         1 JQD       0.086200
     21 H131        -0.3240     0.6990     0.7610 h1         1 JQD       0.086200
     22 H172        -1.1950     2.3090    -3.5770 hc         1 JQD       0.082200
     23 H171        -0.4210     0.9320    -4.4150 hc         1 JQD       0.082200
     24 H011         2.9400     7.1960     1.2240 h1         1 JQD       0.043033
     25 H012         4.5990     6.5980     1.3610 h1         1 JQD       0.043033
     26 H013         3.9090     7.5970     2.6480 h1         1 JQD       0.043033
     27 H041         3.4130     5.5970    -0.0470 ha         1 JQD       0.136000
     28 H051         2.8300     3.6850    -1.4750 ha         1 JQD       0.129000
     29 H071         2.6620     1.1270    -1.4760 h1         1 JQD       0.055700
     30 H081         1.9280    -0.8570    -0.5450 hc         1 JQD       0.071700
     31 H091         1.6760    -0.8590     1.9430 h1         1 JQD       0.064200
     32 H092         3.1630    -0.0160     1.3880 h1         1 JQD       0.064200
     33 H121         2.2510     3.3690     3.4130 ha         1 JQD       0.159000
     34 H162         1.5580     1.1400    -3.2250 h1         1 JQD       0.068200
     35 H161         0.9320     2.9380    -3.0450 h1         1 JQD       0.068200
@<TRIPOS>BOND
     1    19    18 2
     2    18     2 1
     3    18    15 1
     4     1    15 1
     5     1    10 1
     6     2    17 1
     7    15    16 1
     8    10    11 1
     9    10     9 1
    10    16    17 1
    11    16     9 1
    12    11    12 1
    13     9     8 1
    14    12    13 1
    15     8    13 ar
    16     8     7 ar
    17    13    14 ar
    18    14     5 ar
    19     7     6 ar
    20     6     5 ar
    21     5     4 1
    22     4     3 1
    23     1    20 1
    24     1    21 1
    25     2    22 1
    26     2    23 1
    27     3    24 1
    28     3    25 1
    29     3    26 1
    30     6    27 1
    31     7    28 1
    32     9    29 1
    33    10    30 1
    34    11    31 1
    35    11    32 1
    36    14    33 1
    37    17    34 1
    38    17    35 1
@<TRIPOS>SUBSTRUCTURE
     1 JQD         1 TEMP              0 ****  ****    0 ROOT
