@<TRIPOS>MOLECULE
JQF
   43    45     1     0     0
SMALL
bcc


@<TRIPOS>ATOM
      1 O            0.0000     0.0000     0.0000 o          1 JQF      -0.626100
      2 C4           1.2120     0.0000     0.0000 c          1 JQF       0.561100
      3 C3           1.9660     0.0000     1.3050 c3         1 JQF      -0.097400
      4 C1           0.9720    -0.0010     2.4680 c3         1 JQF      -0.037700
      5 C            1.7320    -0.1280     3.7900 c3         1 JQF       0.001400
      6 C2           0.1760     1.3060     2.4600 c3         1 JQF       0.001400
      7 N            1.8860    -0.0050    -1.1670 ns         1 JQF      -0.041100
      8 C5           1.1930    -0.1210    -2.3720 ca         1 JQF      -0.064400
      9 C6           1.6650     0.5260    -3.5090 ca         1 JQF      -0.126000
     10 C7           0.9830     0.4140    -4.7010 ca         1 JQF      -0.047000
     11 C10          0.0340    -0.8880    -2.4360 ca         1 JQF      -0.126000
     12 C9          -0.6520    -1.0050    -3.6240 ca         1 JQF      -0.047000
     13 C8          -0.1840    -0.3520    -4.7670 ca         1 JQF      -0.178900
     14 C11         -0.9180    -0.4740    -6.0410 cc         1 JQF       0.366500
     15 N2          -2.0570    -1.2320    -6.0680 ns         1 JQF      -0.017400
     16 C18         -2.7610    -1.3710    -7.2160 c          1 JQF       0.621100
     17 O1          -3.7760    -2.0410    -7.2580 o          1 JQF      -0.666500
     18 N1          -0.4510     0.1510    -7.0930 nd         1 JQF      -0.544100
     19 C12         -1.0690     0.0830    -8.2880 ca         1 JQF       0.158400
     20 C17         -2.2520    -0.6820    -8.4110 ca         1 JQF      -0.219600
     21 C13         -0.5680     0.7520    -9.4090 ca         1 JQF      -0.101000
     22 C14         -1.2280     0.6560   -10.6130 ca         1 JQF      -0.063000
     23 C15         -2.3900    -0.0950   -10.7290 ca         1 JQF      -0.132000
     24 C16         -2.9040    -0.7640    -9.6400 ca         1 JQF      -0.014000
     25 H31C         2.5890    -0.8840     1.3620 hc         1 JQF       0.030700
     26 H32C         2.5880     0.8850     1.3630 hc         1 JQF       0.030700
     27 H            2.8850     0.0620    -1.1690 hn         1 JQF       0.170500
     28 H1           0.2920    -0.8380     2.3610 hc         1 JQF       0.040700
     29 HC1          1.0260    -0.1830     4.6090 hc         1 JQF       0.006033
     30 HC2          2.3720     0.7360     3.9230 hc         1 JQF       0.006033
     31 HC3          2.3370    -1.0260     3.7740 hc         1 JQF       0.006033
     32 H21C        -0.7880     1.1390     1.9960 hc         1 JQF       0.006033
     33 H22C         0.7210     2.0570     1.9020 hc         1 JQF       0.006033
     34 H23C         0.0330     1.6470     3.4790 hc         1 JQF       0.006033
     35 H6           2.5700     1.1190    -3.4580 ha         1 JQF       0.126500
     36 H10         -0.3290    -1.3940    -1.5490 ha         1 JQF       0.126500
     37 H7           1.3510     0.9200    -5.5860 ha         1 JQF       0.117000
     38 H9          -1.5560    -1.6010    -3.6710 ha         1 JQF       0.117000
     39 H2          -2.3720    -1.6870    -5.2340 hn         1 JQF       0.191500
     40 H13          0.3380     1.3420    -9.3310 ha         1 JQF       0.118000
     41 H16         -3.8110    -1.3490    -9.7370 ha         1 JQF       0.124000
     42 H14         -0.8380     1.1750   -11.4800 ha         1 JQF       0.102000
     43 H15         -2.8950    -0.1590   -11.6850 ha         1 JQF       0.107000
@<TRIPOS>BOND
     1     1     2 2   
     2     2     3 1   
     3     2     7 1   
     4     3     4 1   
     5     3    25 1   
     6     3    26 1   
     7     4     5 1   
     8     4     6 1   
     9     4    28 1   
    10     5    29 1   
    11     5    30 1   
    12     5    31 1   
    13     6    32 1   
    14     6    33 1   
    15     6    34 1   
    16     7     8 1   
    17     7    27 1   
    18     8     9 ar  
    19     8    11 ar  
    20     9    10 ar  
    21     9    35 1   
    22    10    13 ar  
    23    10    37 1   
    24    11    12 ar  
    25    11    36 1   
    26    12    13 ar  
    27    12    38 1   
    28    13    14 1   
    29    14    15 1   
    30    14    18 2   
    31    15    16 1   
    32    15    39 1   
    33    16    17 2   
    34    16    20 1   
    35    18    19 1   
    36    19    20 ar  
    37    19    21 ar  
    38    20    24 ar  
    39    21    22 ar  
    40    21    40 1   
    41    22    23 ar  
    42    22    42 1   
    43    23    24 ar  
    44    23    43 1   
    45    24    41 1   
@<TRIPOS>SUBSTRUCTURE
     1 JQF         1 TEMP              0 ****  ****    0 ROOT
