@<TRIPOS>MOLECULE
JQN
   36    38     1     0     0
SMALL
bcc


@<TRIPOS>ATOM
      1 C1           0.0000     0.0000     0.0000 c3         1 JQN       0.064200
      2 C2           1.5070     0.0000     0.0000 ca         1 JQN      -0.091300
      3 C3           2.1970     0.0000     1.1990 ca         1 JQN      -0.087500
      4 C4           3.5780    -0.0010     1.2030 ca         1 JQN      -0.096000
      5 C5           4.2750    -0.0020    -0.0000 ca         1 JQN       0.042900
      6 C6           3.5770    -0.0020    -1.2030 ca         1 JQN      -0.096000
      7 C7           2.1960    -0.0070    -1.1990 ca         1 JQN      -0.087500
      8 S8           6.0360    -0.0030    -0.0000 ss         1 JQN      -0.280000
      9 C9           6.4440    -0.0040    -1.7680 c3         1 JQN      -0.031300
     10 C10          7.9410    -0.0050    -1.9390 c          1 JQN       0.646700
     11 O11          8.6630    -0.0040    -0.9630 o          1 JQN      -0.529100
     12 C12          8.5270    -0.0060    -3.2850 ca         1 JQN      -0.215600
     13 C13          7.7000    -0.0070    -4.4150 ca         1 JQN      -0.034000
     14 C14          8.2430    -0.0070    -5.6660 ca         1 JQN      -0.135000
     15 C15          9.6300    -0.0070    -5.8370 ca         1 JQN      -0.068400
     16 C16         10.4530    -0.0070    -4.7140 ca         1 JQN      -0.172300
     17 C17          9.9200     0.0000    -3.4500 ca         1 JQN       0.031000
     18 C18         11.8730    -0.0060    -5.2290 c3         1 JQN      -0.044100
     19 C19         11.7160    -0.0080    -6.7340 c          1 JQN       0.607500
     20 O20         12.6120    -0.0080    -7.5520 o          1 JQN      -0.637500
     21 N21         10.3980    -0.0080    -6.9950 ns         1 JQN      -0.005100
     22 H11C        -0.3610     0.2530     0.9900 hc         1 JQN       0.008367
     23 H12C        -0.3610     0.7310    -0.7130 hc         1 JQN       0.008367
     24 H13C        -0.3610    -0.9830    -0.2760 hc         1 JQN       0.008367
     25 H3           1.6540     0.0010     2.1370 ha         1 JQN       0.107000
     26 H7           1.6520    -0.0070    -2.1360 ha         1 JQN       0.107000
     27 H4           4.1180    -0.0010     2.1420 ha         1 JQN       0.112500
     28 H6           4.1160    -0.0050    -2.1420 ha         1 JQN       0.112500
     29 H91C         6.0270     0.8800    -2.2350 h1         1 JQN       0.059700
     30 H92C         6.0270    -0.8890    -2.2340 h1         1 JQN       0.059700
     31 H13          6.6230    -0.0090    -4.2950 ha         1 JQN       0.107000
     32 H17         10.5670     0.1200    -2.5900 ha         1 JQN       0.127000
     33 H14          7.5940    -0.0070    -6.5340 ha         1 JQN       0.110000
     34 H21         10.0140    -0.0090    -7.9190 hn         1 JQN       0.178500
     35 H181        12.3930     0.8870    -4.9040 hc         1 JQN       0.057200
     36 H182        12.3940    -0.8980    -4.9020 hc         1 JQN       0.057200
@<TRIPOS>BOND
     1     1     2 1   
     2     1    22 1   
     3     1    23 1   
     4     1    24 1   
     5     2     3 ar  
     6     2     7 ar  
     7     3     4 ar  
     8     3    25 1   
     9     4     5 ar  
    10     4    27 1   
    11     5     6 ar  
    12     5     8 1   
    13     6     7 ar  
    14     6    28 1   
    15     7    26 1   
    16     8     9 1   
    17     9    10 1   
    18     9    29 1   
    19     9    30 1   
    20    10    11 2   
    21    10    12 1   
    22    12    13 ar  
    23    12    17 ar  
    24    13    14 ar  
    25    13    31 1   
    26    14    15 ar  
    27    14    33 1   
    28    15    16 ar  
    29    15    21 1   
    30    16    17 ar  
    31    16    18 1   
    32    17    32 1   
    33    18    19 1   
    34    18    35 1   
    35    18    36 1   
    36    19    20 2   
    37    19    21 1   
    38    21    34 1   
@<TRIPOS>SUBSTRUCTURE
     1 JQN         1 TEMP              0 ****  ****    0 ROOT
