@<TRIPOS>MOLECULE
molecule
   36    38     1     0     0
SMALL
bcc


@<TRIPOS>ATOM
      1 C1           0.0000     0.0000     0.0000 c3         1 JQN      -0.047800
      2 C2           1.5070     0.0000     0.0000 ca         1 JQN      -0.089300
      3 C3           2.1970     0.0000     1.1990 ca         1 JQN      -0.111000
      4 C4           3.5780    -0.0010     1.2030 ca         1 JQN      -0.128000
      5 C5           4.2750    -0.0020    -0.0000 ca         1 JQN       0.017900
      6 C6           3.5770    -0.0020    -1.2030 ca         1 JQN      -0.128000
      7 C7           2.1960    -0.0070    -1.1990 ca         1 JQN      -0.111000
      8 S8           6.0360    -0.0030    -0.0000 ss         1 JQN      -0.182000
      9 C9           6.4440    -0.0040    -1.7680 c3         1 JQN      -0.120300
     10 C10          7.9410    -0.0050    -1.9390 c          1 JQN       0.596700
     11 O11          8.6630    -0.0040    -0.9630 o          1 JQN      -0.506100
     12 C12          8.5270    -0.0060    -3.2850 ca         1 JQN      -0.206600
     13 C13          7.7000    -0.0070    -4.4150 ca         1 JQN      -0.056000
     14 C14          8.2430    -0.0070    -5.6660 ca         1 JQN      -0.172000
     15 C15          9.6300    -0.0070    -5.8370 ca         1 JQN       0.085600
     16 C16         10.4530    -0.0070    -4.7140 ca         1 JQN      -0.164300
     17 C17          9.9200     0.0000    -3.4500 ca         1 JQN      -0.011000
     18 C18         11.8730    -0.0060    -5.2290 c3         1 JQN      -0.120100
     19 C19         11.7160    -0.0080    -6.7340 c          1 JQN       0.708500
     20 O20         12.6120    -0.0080    -7.5520 o          1 JQN      -0.594500
     21 N21         10.3980    -0.0080    -6.9950 ns         1 JQN      -0.459100
     22 H11C        -0.3610     0.2530     0.9900 hc         1 JQN       0.044033
     23 H12C        -0.3610     0.7310    -0.7130 hc         1 JQN       0.044033
     24 H13C        -0.3610    -0.9830    -0.2760 hc         1 JQN       0.044033
     25 H3           1.6540     0.0010     2.1370 ha         1 JQN       0.133000
     26 H7           1.6520    -0.0070    -2.1360 ha         1 JQN       0.133000
     27 H4           4.1180    -0.0010     2.1420 ha         1 JQN       0.133000
     28 H6           4.1160    -0.0050    -2.1420 ha         1 JQN       0.133000
     29 H91C         6.0270     0.8800    -2.2350 h1         1 JQN       0.084700
     30 H92C         6.0270    -0.8890    -2.2340 h1         1 JQN       0.084700
     31 H13          6.6230    -0.0090    -4.2950 ha         1 JQN       0.137000
     32 H17         10.5670     0.1200    -2.5900 ha         1 JQN       0.160000
     33 H14          7.5940    -0.0070    -6.5340 ha         1 JQN       0.138000
     34 H21         10.0140    -0.0090    -7.9190 hn         1 JQN       0.340500
     35 H181        12.3930     0.8870    -4.9040 hc         1 JQN       0.095200
     36 H182        12.3940    -0.8980    -4.9020 hc         1 JQN       0.095200
@<TRIPOS>BOND
     1     1     2 1
     2     2     3 ar
     3     2     7 ar
     4     3     4 ar
     5     4     5 ar
     6     5     6 ar
     7     5     8 1
     8     6     7 ar
     9     8     9 1
    10     9    10 1
    11    10    11 2
    12    10    12 1
    13    12    13 ar
    14    12    17 ar
    15    13    14 ar
    16    14    15 ar
    17    15    16 ar
    18    15    21 1
    19    16    17 ar
    20    16    18 1
    21    18    19 1
    22    19    20 2
    23    19    21 1
    24     1    22 1
    25     1    23 1
    26     1    24 1
    27     3    25 1
    28     7    26 1
    29     4    27 1
    30     6    28 1
    31     9    29 1
    32     9    30 1
    33    13    31 1
    34    17    32 1
    35    14    33 1
    36    21    34 1
    37    18    35 1
    38    18    36 1
@<TRIPOS>SUBSTRUCTURE
     1 JQN         1 TEMP              0 ****  ****    0 ROOT
