@<TRIPOS>MOLECULE
molecule
   37    38     1     0     0
SMALL
bcc


@<TRIPOS>ATOM
      1 C2           0.0000     0.0000     0.0000 cc         1 JQS       0.359800
      2 C3           0.6430    -0.0060     2.0720 cd         1 JQS       0.430400
      3 C5           3.7000     1.4430     1.8850 c3         1 JQS       0.087100
      4 O3           5.9270     1.7540     2.8450 oh         1 JQS      -0.581800
      5 C1          -0.8680     0.0050    -1.1780 c          1 JQS       0.789100
      6 O1          -2.2090     0.0100    -1.0270 o          1 JQS      -0.814300
      7 O2           4.5010     1.7280     0.7360 oh         1 JQS      -0.579800
      8 C4           3.1520    -0.0010     1.8180 c3         1 JQS       0.233800
      9 C10          2.6030    -1.1320    -1.6080 c2         1 JQS       0.375100
     10 C6           4.5650     1.4600     3.1650 c3         1 JQS       0.085100
     11 C7           4.4370     0.0260     3.7240 c3         1 JQS       0.122100
     12 C8           4.3880     0.0530     5.2530 c3         1 JQS       0.228400
     13 C9           1.3950     0.0000     0.0000 cc         1 JQS      -0.164200
     14 N1          -0.4010    -0.0010     1.2980 nc         1 JQS      -0.658000
     15 N2           1.7760     0.0000     1.3160 na         1 JQS      -0.214900
     16 N3           2.2100    -0.0000    -1.0850 ne         1 JQS      -0.415100
     17 N4           2.1930    -2.3130    -1.0640 nz         1 JQS      -0.821600
     18 O4           4.3880    -1.2850     5.7530 os         1 JQS      -0.575200
     19 O5           2.9390    -1.1400     7.9420 o          1 JQS      -0.787500
     20 O6           4.4850    -3.2260     7.5250 o          1 JQS      -0.787500
     21 O7           5.4540    -0.9470     8.0150 o          1 JQS      -0.787500
     22 O8           3.1890    -0.4720     3.1820 os         1 JQS      -0.378600
     23 O9          -0.3820     0.0060    -2.2930 o          1 JQS      -0.814300
     24 P1           4.3410    -1.6350     7.3240 p5         1 JQS       1.200900
     25 H1           0.6150    -0.0080     3.1550 h5         1 JQS       0.090100
     26 H2           2.8850     2.1510     1.9710 h1         1 JQS       0.060700
     27 H3           6.1790     2.5630     3.2580 ho         1 JQS       0.394000
     28 H5           4.3720     2.6260     0.4780 ho         1 JQS       0.403000
     29 H6           3.7880    -0.6150     1.1920 h2         1 JQS       0.056700
     30 H7           3.0240    -1.5700    -0.7110 hx         1 JQS       0.035800
     31 H8           4.1720     2.1780     3.8750 h1         1 JQS       0.054700
     32 H9           5.2640    -0.5840     3.3790 h1         1 JQS       0.076700
     33 H10          5.2550     0.5810     5.6330 h1         1 JQS       0.032700
     34 H11          3.4870     0.5600     5.5760 h1         1 JQS       0.032700
     35 H12          1.9270    -2.1660    -0.1100 hn         1 JQS       0.410467
     36 H13          1.4100    -2.6630    -1.5790 hn         1 JQS       0.410467
     37 H43          2.9420    -2.9760    -1.1030 hn         1 JQS       0.410467
@<TRIPOS>BOND
     1    21    24 1
     2    24    19 1
     3    24    20 1
     4    24    18 1
     5    18    12 1
     6    12    11 1
     7    22    11 1
     8    22     8 1
     9    11    10 1
    10    16     9 2
    11    16    13 1
    12     9    17 1
    13     8    15 1
    14     8     3 1
    15    10     4 1
    16    10     3 1
    17    13    15 1
    18    13     1 2
    19    15     2 1
    20     7     3 1
    21    23     5 1
    22     5     1 1
    23     5     6 1
    24     1    14 1
    25     2    14 2
    26     2    25 1
    27     3    26 1
    28     4    27 1
    29     7    28 1
    30     8    29 1
    31     9    30 1
    32    10    31 1
    33    11    32 1
    34    12    33 1
    35    12    34 1
    36    17    35 1
    37    17    36 1
    38    37    17 1
@<TRIPOS>SUBSTRUCTURE
     1 JQS         1 TEMP              0 ****  ****    0 ROOT
