@<TRIPOS>MOLECULE
molecule
   28    30     1     0     0
SMALL
bcc


@<TRIPOS>ATOM
      1 N1           0.0000     0.0000     0.0000 nb         1 JR2      -0.816000
      2 C2           1.3270     0.0000     0.0000 ca         1 JR2       0.966900
      3 N3           2.0370     0.0000     1.1150 nb         1 JR2      -0.792000
      4 C4           1.4350     0.0020     2.3040 ca         1 JR2       0.511800
      5 C5           0.0290     0.0020     2.3480 ca         1 JR2      -0.364400
      6 C6          -0.6850     0.0020     1.1390 ca         1 JR2       0.692200
      7 NAA          1.9930    -0.0020    -1.2140 nv         1 JR2      -1.056500
      8 CAB          0.8120     0.0040     4.4610 cc         1 JR2      -0.114100
      9 CAC         -0.3360     0.0040     3.7640 cd         1 JR2      -0.161200
     10 CAD         -4.0380    -0.5320    -0.1230 c3         1 JR2      -0.089900
     11 CAE         -4.0430    -1.3550     1.1820 c3         1 JR2      -0.089900
     12 CAF         -2.5950     0.0020    -0.2550 c3         1 JR2       0.154800
     13 CAG         -2.6030    -1.2490     1.7290 c3         1 JR2       0.154800
     14 NAJ          1.8790     0.0030     3.5970 na         1 JR2      -0.276100
     15 NAO         -2.0680     0.0030     1.1340 nh         1 JR2      -0.674300
     16 HNAA         2.1830    -0.8680    -1.6780 hn         1 JR2       0.442300
     17 HNAB         2.3110     0.8590    -1.6110 hn         1 JR2       0.442300
     18 HAB          0.8850     0.0050     5.5420 h4         1 JR2       0.171000
     19 HAC         -1.3400     0.0050     4.1720 ha         1 JR2       0.159000
     20 HADA        -4.7370     0.2920    -0.0500 hc         1 JR2       0.049950
     21 HAE         -4.2890    -2.3890     0.9720 hc         1 JR2       0.049950
     22 HAEA        -4.7450    -0.9310     1.8890 hc         1 JR2       0.049950
     23 HAF         -2.0050    -0.6580    -0.8810 h1         1 JR2       0.058450
     24 HAFA        -2.6010     1.0080    -0.6560 h1         1 JR2       0.058450
     25 HAG         -2.0140    -2.1000     1.4070 h1         1 JR2       0.058450
     26 HAGA        -2.6150    -1.1770     2.8090 h1         1 JR2       0.058450
     27 HNAJ         2.8400     0.0030     3.8740 hn         1 JR2       0.305700
     28 HAD         -4.2810    -1.1660    -0.9670 hc         1 JR2       0.049950
@<TRIPOS>BOND
     1     1     2 ar
     2     1     6 ar
     3     2     3 ar
     4     2     7 1
     5     3     4 ar
     6     4     5 ar
     7     4    14 1
     8     5     6 ar
     9     5     9 1
    10     6    15 1
    11     8     9 2
    12     8    14 1
    13    10    11 1
    14    10    12 1
    15    11    13 1
    16    12    15 1
    17    13    15 1
    18     7    16 1
    19     7    17 1
    20     8    18 1
    21     9    19 1
    22    10    28 1
    23    10    20 1
    24    11    21 1
    25    11    22 1
    26    12    23 1
    27    12    24 1
    28    13    25 1
    29    13    26 1
    30    14    27 1
@<TRIPOS>SUBSTRUCTURE
     1 JR2         1 TEMP              0 ****  ****    0 ROOT
