@<TRIPOS>MOLECULE
molecule
   43    45     1     0     0
SMALL
bcc


@<TRIPOS>ATOM
      1 C01          0.0000     0.0000     0.0000 c3         1 JR4       0.114300
      2 C03          2.2530     0.0000     1.0910 c          1 JR4       0.801500
      3 C06          4.7000    -0.0010     1.6210 c3         1 JR4       0.116300
      4 C07          3.6010     0.0010    -0.6740 ca         1 JR4      -0.032400
      5 C08          4.6460     0.0020    -1.5860 ca         1 JR4      -0.018000
      6 C09          4.3760     0.0030    -2.9410 ca         1 JR4      -0.319500
      7 C10          3.0670     0.0030    -3.3920 ca         1 JR4       0.022700
      8 C11          2.7850     0.0050    -4.8720 c3         1 JR4      -0.086800
      9 C12          2.0200     0.0020    -2.4910 ca         1 JR4      -0.151000
     10 C13          2.2810     0.0020    -1.1300 ca         1 JR4       0.051600
     11 C18          5.8410     2.7020    -4.2460 c3         1 JR4       0.285100
     12 C19          6.1090     3.7840    -5.2600 ca         1 JR4      -0.125300
     13 C20          7.4040     4.0410    -5.6700 ca         1 JR4      -0.086000
     14 C21          7.6500     5.0300    -6.6030 ca         1 JR4      -0.169500
     15 C22          6.6000     5.7640    -7.1270 ca         1 JR4       0.142900
     16 C24          5.3030     5.5050    -6.7160 ca         1 JR4      -0.169500
     17 C25          5.0590     4.5160    -5.7820 ca         1 JR4      -0.086000
     18 F23          6.8390     6.7320    -8.0390 f          1 JR4      -0.137900
     19 N02          1.4660     0.0000     0.0000 n          1 JR4      -0.359000
     20 N05          3.5460     0.0000     0.7180 n          1 JR4      -0.358000
     21 N17          5.6200     1.4290    -4.9380 n7         1 JR4      -0.916100
     22 O15          6.9020     0.0580    -3.3360 o          1 JR4      -0.637800
     23 O16          5.4220    -1.0290    -5.0330 o          1 JR4      -0.637800
     24 S14          5.7040     0.0040    -4.0990 sy         1 JR4       1.433200
     25 H1          -0.3610     0.8870    -0.5060 h1         1 JR4       0.056033
     26 H2          -0.3610    -0.0050     1.0210 h1         1 JR4       0.056033
     27 H3          -0.3610    -0.8820    -0.5150 h1         1 JR4       0.056033
     28 H4           4.3550    -0.0620     2.6460 h1         1 JR4       0.055700
     29 H5           5.2660     0.9130     1.4850 h1         1 JR4       0.055700
     30 H6           5.3300    -0.8530     1.4000 h1         1 JR4       0.055700
     31 H7           5.6710     0.0020    -1.2360 ha         1 JR4       0.161000
     32 H8           3.2590    -0.8550    -5.3310 hc         1 JR4       0.063700
     33 H9           1.7150    -0.0430    -5.0360 hc         1 JR4       0.063700
     34 H10          3.1780     0.9120    -5.3140 hc         1 JR4       0.063700
     35 H11          0.9970     0.0020    -2.8480 ha         1 JR4       0.141000
     36 H12          4.9600     2.9570    -3.6700 h1         1 JR4       0.055200
     37 H13          6.6920     2.6090    -3.5830 h1         1 JR4       0.055200
     38 H14          8.2260     3.4670    -5.2600 ha         1 JR4       0.142500
     39 H15          8.6650     5.2320    -6.9240 ha         1 JR4       0.149000
     40 H16          4.4800     6.0790    -7.1250 ha         1 JR4       0.149000
     41 H17          4.0450     4.3130    -5.4600 ha         1 JR4       0.142500
     42 H18          5.4580     1.4190    -5.9250 hn         1 JR4       0.459800
     43 O04          1.8560     0.0030     2.2420 o          1 JR4      -0.656500
@<TRIPOS>BOND
     1    14    13 ar
     2    14    15 ar
     3    18    15 1
     4    13    12 ar
     5    15    16 ar
     6    12    17 ar
     7    12    11 1
     8    16    17 ar
     9    11    21 1
    10     3    20 1
    11    21    24 1
    12    20     2 1
    13    20     4 1
    14    43     2 2
    15    23    24 2
    16     2    19 1
    17     5     4 ar
    18     5     6 ar
    19     4    10 ar
    20    24     6 1
    21    24    22 2
    22     6     7 ar
    23    19    10 1
    24    19     1 1
    25    10     9 ar
    26     7     9 ar
    27     7     8 1
    28     1    25 1
    29     1    26 1
    30     1    27 1
    31     3    28 1
    32     3    29 1
    33     3    30 1
    34     5    31 1
    35     8    32 1
    36     8    33 1
    37     8    34 1
    38     9    35 1
    39    11    36 1
    40    11    37 1
    41    13    38 1
    42    14    39 1
    43    16    40 1
    44    17    41 1
    45    21    42 1
@<TRIPOS>SUBSTRUCTURE
     1 JR4         1 TEMP              0 ****  ****    0 ROOT
