@<TRIPOS>MOLECULE
JR4
   43    45     1     0     0
SMALL
bcc


@<TRIPOS>ATOM
      1 C01          0.0000     0.0000     0.0000 c3         1 JR4       0.085300
      2 C03          2.2530     0.0000     1.0910 c          1 JR4       0.582500
      3 C06          4.7000    -0.0010     1.6210 c3         1 JR4       0.085300
      4 C07          3.6010     0.0010    -0.6740 ca         1 JR4      -0.189400
      5 C08          4.6460     0.0020    -1.5860 ca         1 JR4       0.033000
      6 C09          4.3760     0.0030    -2.9410 ca         1 JR4      -0.163500
      7 C10          3.0670     0.0030    -3.3920 ca         1 JR4       0.021700
      8 C11          2.7850     0.0050    -4.8720 c3         1 JR4       0.008200
      9 C12          2.0200     0.0020    -2.4910 ca         1 JR4      -0.121000
     10 C13          2.2810     0.0020    -1.1300 ca         1 JR4      -0.097400
     11 C18          5.8410     2.7020    -4.2460 c3         1 JR4       0.290100
     12 C19          6.1090     3.7840    -5.2600 ca         1 JR4      -0.136300
     13 C20          7.4040     4.0410    -5.6700 ca         1 JR4      -0.056000
     14 C21          7.6500     5.0300    -6.6030 ca         1 JR4      -0.135000
     15 C22          6.6000     5.7640    -7.1270 ca         1 JR4       0.112900
     16 C24          5.3030     5.5050    -6.7160 ca         1 JR4      -0.135000
     17 C25          5.0590     4.5160    -5.7820 ca         1 JR4      -0.056000
     18 F23          6.8390     6.7320    -8.0390 f          1 JR4      -0.126900
     19 N02          1.4660     0.0000     0.0000 n          1 JR4       0.047000
     20 N05          3.5460     0.0000     0.7180 n          1 JR4       0.051000
     21 N17          5.6200     1.4290    -4.9380 n7         1 JR4      -0.588100
     22 O15          6.9020     0.0580    -3.3360 o          1 JR4      -0.588300
     23 O16          5.4220    -1.0290    -5.0330 o          1 JR4      -0.588300
     24 S14          5.7040     0.0040    -4.0990 sy         1 JR4       1.049200
     25 H1          -0.3610     0.8870    -0.5060 h1         1 JR4       0.021367
     26 H2          -0.3610    -0.0050     1.0210 h1         1 JR4       0.021367
     27 H3          -0.3610    -0.8820    -0.5150 h1         1 JR4       0.021367
     28 H4           4.3550    -0.0620     2.6460 h1         1 JR4       0.021700
     29 H5           5.2660     0.9130     1.4850 h1         1 JR4       0.021700
     30 H6           5.3300    -0.8530     1.4000 h1         1 JR4       0.021700
     31 H7           5.6710     0.0020    -1.2360 ha         1 JR4       0.133000
     32 H8           3.2590    -0.8550    -5.3310 hc         1 JR4       0.030033
     33 H9           1.7150    -0.0430    -5.0360 hc         1 JR4       0.030033
     34 H10          3.1780     0.9120    -5.3140 hc         1 JR4       0.030033
     35 H11          0.9970     0.0020    -2.8480 ha         1 JR4       0.117000
     36 H12          4.9600     2.9570    -3.6700 h1         1 JR4       0.018700
     37 H13          6.6920     2.6090    -3.5830 h1         1 JR4       0.018700
     38 H14          8.2260     3.4670    -5.2600 ha         1 JR4       0.112500
     39 H15          8.6650     5.2320    -6.9240 ha         1 JR4       0.121000
     40 H16          4.4800     6.0790    -7.1250 ha         1 JR4       0.121000
     41 H17          4.0450     4.3130    -5.4600 ha         1 JR4       0.112500
     42 H18          5.4580     1.4190    -5.9250 hn         1 JR4       0.355800
     43 O04          1.8560     0.0030     2.2420 o          1 JR4      -0.713500
@<TRIPOS>BOND
     1     1    19 1   
     2     1    25 1   
     3     1    26 1   
     4     1    27 1   
     5     2    19 1   
     6     2    20 1   
     7     2    43 2   
     8     3    20 1   
     9     3    28 1   
    10     3    29 1   
    11     3    30 1   
    12     4     5 ar  
    13     4    10 ar  
    14     4    20 1   
    15     5     6 ar  
    16     5    31 1   
    17     6     7 ar  
    18     6    24 1   
    19     7     8 1   
    20     7     9 ar  
    21     8    32 1   
    22     8    33 1   
    23     8    34 1   
    24     9    10 ar  
    25     9    35 1   
    26    10    19 1   
    27    11    12 1   
    28    11    21 1   
    29    11    36 1   
    30    11    37 1   
    31    12    13 ar  
    32    12    17 ar  
    33    13    14 ar  
    34    13    38 1   
    35    14    15 ar  
    36    14    39 1   
    37    15    16 ar  
    38    15    18 1   
    39    16    17 ar  
    40    16    40 1   
    41    17    41 1   
    42    21    24 1   
    43    21    42 1   
    44    22    24 2   
    45    23    24 2   
@<TRIPOS>SUBSTRUCTURE
     1 JR4         1 TEMP              0 ****  ****    0 ROOT
