@<TRIPOS>MOLECULE
JR5
   48    51     1     0     0
SMALL
bcc


@<TRIPOS>ATOM
      1 C01          0.0000     0.0000     0.0000 c3         1 JR5       0.008600
      2 C04          3.6130     0.0000     0.0000 cc         1 JR5       0.349600
      3 C05          3.3430     0.0000     1.3710 cc         1 JR5      -0.359600
      4 C06          1.9910    -0.0000     1.5300 cd         1 JR5      -0.224700
      5 C08          0.3370     0.9120     2.9720 c          1 JR5       0.535100
      6 C10         -0.3210     0.9890     4.3250 c3         1 JR5       0.152500
      7 C11         -1.5650     0.0760     4.3560 c3         1 JR5      -0.027400
      8 C12         -2.5830     0.9030     5.1860 c3         1 JR5      -0.030400
      9 C13         -2.2460     2.3480     4.7400 c3         1 JR5       0.238800
     10 C18          0.2060     4.4420     3.0720 ca         1 JR5      -0.160500
     11 C19         -0.8080     5.3060     2.6990 ca         1 JR5       0.044000
     12 C20         -0.7920     5.8910     1.4460 ca         1 JR5      -0.165500
     13 C21          0.2410     5.6130     0.5670 ca         1 JR5       0.155900
     14 C23          1.2560     4.7500     0.9430 ca         1 JR5      -0.165500
     15 C24          1.2370     4.1660     2.1950 ca         1 JR5       0.044000
     16 C25          4.6440    -0.0010     2.1440 c3         1 JR5       0.094900
     17 C26          5.7190    -0.4420     1.1280 c3         1 JR5      -0.030400
     18 C27          5.1110     0.0040    -0.2210 c3         1 JR5      -0.019700
     19 F22          0.2580     6.1850    -0.6570 f          1 JR5      -0.126900
     20 N02          1.4340     0.0000     0.2980 na         1 JR5       0.513400
     21 N03          2.4710    -0.0000    -0.6430 nd         1 JR5      -0.616800
     22 N14         -0.7810     2.3620     4.5790 n3         1 JR5      -0.521500
     23 O09         -0.0010     1.6690     2.0880 o          1 JR5      -0.651100
     24 O16          1.5060     3.2290     4.9100 o          1 JR5      -0.587800
     25 O17         -0.4770     4.6190     5.5300 o          1 JR5      -0.587800
     26 S15          0.1870     3.7020     4.6710 sy         1 JR5       1.073200
     27 H1          -0.1620    -0.4010    -0.9930 h1         1 JR5       0.030033
     28 H2          -0.5200    -0.6130     0.7260 h1         1 JR5       0.030033
     29 H3          -0.3790     1.0140     0.0460 h1         1 JR5       0.030033
     30 H4           0.3750     0.6860     5.0970 h1         1 JR5       0.041700
     31 H5          -1.3390    -0.8600     4.8520 hc         1 JR5       0.024200
     32 H6          -1.9390    -0.0930     3.3530 hc         1 JR5       0.024200
     33 H7          -2.4080     0.7760     6.2480 hc         1 JR5       0.026200
     34 H8          -3.6000     0.6440     4.9180 hc         1 JR5       0.026200
     35 H9          -2.5470     3.0560     5.5030 h1         1 JR5       0.021700
     36 H10         -2.7300     2.5720     3.7970 h1         1 JR5       0.021700
     37 H11         -1.6160     5.5220     3.3870 ha         1 JR5       0.121500
     38 H12         -1.5870     6.5670     1.1530 ha         1 JR5       0.123500
     39 H13          2.0650     4.5330     0.2550 ha         1 JR5       0.123500
     40 H14          2.0310     3.4900     2.4890 ha         1 JR5       0.121500
     41 H15          4.5910    -0.7080     2.9630 hc         1 JR5       0.012700
     42 H16          4.8620     0.9940     2.5120 hc         1 JR5       0.012700
     43 H17          6.6330     0.1110     1.3100 hc         1 JR5       0.023200
     44 H18          5.8050    -1.5220     1.1430 hc         1 JR5       0.023200
     45 H19          5.3760    -0.6980    -1.0020 hc         1 JR5       0.021700
     46 H20          5.4490     1.0020    -0.4720 hc         1 JR5       0.021700
     47 H21          1.5190    -0.6840     3.4420 hn         1 JR5       0.175500
     48 N07          1.3030     0.0000     2.7440 ns         1 JR5       0.008900
@<TRIPOS>BOND
     1     1    20 1   
     2     1    27 1   
     3     1    28 1   
     4     1    29 1   
     5     2     3 1   
     6     2    18 1   
     7     2    21 2   
     8     3     4 2   
     9     3    16 1   
    10     4    20 1   
    11     4    48 1   
    12     5     6 1   
    13     5    23 2   
    14     5    48 1   
    15     6     7 1   
    16     6    22 1   
    17     6    30 1   
    18     7     8 1   
    19     7    31 1   
    20     7    32 1   
    21     8     9 1   
    22     8    33 1   
    23     8    34 1   
    24     9    22 1   
    25     9    35 1   
    26     9    36 1   
    27    10    11 ar  
    28    10    15 ar  
    29    10    26 1   
    30    11    12 ar  
    31    11    37 1   
    32    12    13 ar  
    33    12    38 1   
    34    13    14 ar  
    35    13    19 1   
    36    14    15 ar  
    37    14    39 1   
    38    15    40 1   
    39    16    17 1   
    40    16    41 1   
    41    16    42 1   
    42    17    18 1   
    43    17    43 1   
    44    17    44 1   
    45    18    45 1   
    46    18    46 1   
    47    20    21 1   
    48    22    26 1   
    49    24    26 2   
    50    25    26 2   
    51    47    48 1   
@<TRIPOS>SUBSTRUCTURE
     1 JR5         1 TEMP              0 ****  ****    0 ROOT
