@<TRIPOS>MOLECULE
JR6
   41    43     1     0     0
SMALL
bcc


@<TRIPOS>ATOM
      1 C01          0.0000     0.0000     0.0000 c3         1 JR6       0.244700
      2 C03          2.0470     0.0000     1.2110 ca         1 JR6       0.150100
      3 C04          3.4330     0.0010     1.2830 ca         1 JR6      -0.162500
      4 C05          4.0610    -0.0010     2.5120 ca         1 JR6      -0.057000
      5 C06          3.3060    -0.0000     3.6780 ca         1 JR6       0.003900
      6 C08          2.7180    -0.0000     6.4140 c3         1 JR6      -0.009300
      7 C09          3.2470    -0.0010     7.8250 c          1 JR6       0.573100
      8 C12          2.8780    -0.0960    10.1690 cc         1 JR6      -0.227700
      9 C13          4.1080     0.2990    10.6000 cd         1 JR6      -0.309600
     10 C14          5.4020     0.9260    10.1280 c3         1 JR6       0.089900
     11 C15          6.1130     1.4030    11.4120 c3         1 JR6      -0.039400
     12 C16          5.5500     0.4470    12.4860 c3         1 JR6      -0.019700
     13 C17          4.1930     0.0220    11.9670 cd         1 JR6       0.346600
     14 C21          1.9190     0.0010     3.6050 ca         1 JR6      -0.057000
     15 C22          1.2920     0.0070     2.3750 ca         1 JR6      -0.162500
     16 N11          2.3910    -0.0010     8.8660 ns         1 JR6      -0.002100
     17 N18          3.0610    -0.5200    12.3460 nc         1 JR6      -0.615800
     18 N19          2.2170    -0.6050    11.2330 na         1 JR6       0.454400
     19 O02          1.4290     0.0000     0.0000 os         1 JR6      -0.305900
     20 O10          4.4440    -0.0020     8.0230 o          1 JR6      -0.582100
     21 S07          4.1060    -0.0010     5.2470 ss         1 JR6      -0.263000
     22 H1          -0.3610     0.8860     0.5080 h1         1 JR6      -0.002300
     23 H2          -0.3610    -0.8830     0.5130 h1         1 JR6      -0.002300
     24 H3          -0.3610    -0.0030    -1.0210 h1         1 JR6      -0.002300
     25 H4           4.0220    -0.0020     0.3730 ha         1 JR6       0.120000
     26 H5           5.1430    -0.0010     2.5670 ha         1 JR6       0.111500
     27 H6           2.1120    -0.8850     6.2550 h1         1 JR6       0.050700
     28 H7           2.1130     0.8840     6.2560 h1         1 JR6       0.050700
     29 H8           6.0090     0.1890     9.6160 hc         1 JR6       0.030200
     30 H9           5.1950     1.7680     9.4800 hc         1 JR6       0.030200
     31 H10          5.8050     2.4170    11.6370 hc         1 JR6       0.022200
     32 H11          7.1790     1.2420    11.3120 hc         1 JR6       0.022200
     33 H12          5.4150     0.9970    13.4090 hc         1 JR6       0.024200
     34 H13          6.1900    -0.4240    12.5510 hc         1 JR6       0.024200
     35 H14          0.5650    -1.4130    12.2320 h1         1 JR6       0.018033
     36 H15          0.1720    -0.4050    10.8330 h1         1 JR6       0.018033
     37 H16          0.8250    -2.0320    10.5960 h1         1 JR6       0.018033
     38 H17          1.3290     0.0040     4.5140 ha         1 JR6       0.111500
     39 H18          0.2100     0.0070     2.3180 ha         1 JR6       0.120000
     40 H19          1.4080     0.0910     8.7050 hn         1 JR6       0.157500
     41 C20          0.8560    -1.1490    11.2230 c3         1 JR6       0.029600
@<TRIPOS>BOND
     1     1    19 1   
     2     1    22 1   
     3     1    23 1   
     4     1    24 1   
     5     2     3 ar  
     6     2    15 ar  
     7     2    19 1   
     8     3     4 ar  
     9     3    25 1   
    10     4     5 ar  
    11     4    26 1   
    12     5    14 ar  
    13     5    21 1   
    14     6     7 1   
    15     6    21 1   
    16     6    27 1   
    17     6    28 1   
    18     7    16 1   
    19     7    20 2   
    20     8     9 2   
    21     8    16 1   
    22     8    18 1   
    23     9    10 1   
    24     9    13 1   
    25    10    11 1   
    26    10    29 1   
    27    10    30 1   
    28    11    12 1   
    29    11    31 1   
    30    11    32 1   
    31    12    13 1   
    32    12    33 1   
    33    12    34 1   
    34    13    17 2   
    35    14    15 ar  
    36    14    38 1   
    37    15    39 1   
    38    16    40 1   
    39    17    18 1   
    40    18    41 1   
    41    35    41 1   
    42    36    41 1   
    43    37    41 1   
@<TRIPOS>SUBSTRUCTURE
     1 JR6         1 TEMP              0 ****  ****    0 ROOT
