@<TRIPOS>MOLECULE
molecule
   47    51     1     0     0
SMALL
bcc


@<TRIPOS>ATOM
      1 N01          0.0000     0.0000     0.0000 nc         1 JR9      -0.721000
      2 C02          1.3400     0.0000     0.0000 cc         1 JR9       0.394200
      3 C03          2.0410     0.0000     1.1480 cd         1 JR9      -0.242600
      4 N04          1.3800     0.0000     2.3550 na         1 JR9       0.028700
      5 C05          0.0030    -0.0000     2.3640 cd         1 JR9      -0.184600
      6 C06         -0.6860    -0.0000     1.1250 cd         1 JR9       0.760200
      7 C07          1.7900    -0.0000     3.6520 cd         1 JR9       0.063900
      8 C08          0.6690     0.0000     4.4240 cc         1 JR9       0.022400
      9 N09         -0.3980     0.0000     3.6230 nc         1 JR9      -0.245600
     10 N10         -2.0710     0.0000     1.0980 nv         1 JR9      -1.063500
     11 N11          3.1110    -0.0000     4.1060 nu         1 JR9      -0.757000
     12 C12          4.0550    -0.0000     2.9800 c3         1 JR9       0.240100
     13 C13          5.4660    -0.0010     3.5080 ca         1 JR9      -0.114300
     14 C14          6.1140    -1.1970     3.7500 ca         1 JR9      -0.111500
     15 C15          7.4080    -1.1980     4.2340 ca         1 JR9      -0.129000
     16 C16          8.0560    -0.0010     4.4770 ca         1 JR9      -0.118000
     17 C17          7.4080     1.1960     4.2360 ca         1 JR9      -0.129000
     18 C18          6.1160     1.1970     3.7450 ca         1 JR9      -0.111500
     19 C19          0.6370     0.0000     5.9310 c3         1 JR9       0.058100
     20 C20          0.4970    -1.4150     6.4300 ca         1 JR9      -0.050300
     21 C21         -0.7590    -1.9830     6.5500 ca         1 JR9      -0.005900
     22 C22         -0.8930    -3.2810     7.0080 ca         1 JR9      -0.092000
     23 C23          0.2320    -4.0160     7.3480 ca         1 JR9       0.046100
     24 C24          1.4960    -3.4430     7.2270 ca         1 JR9       0.057100
     25 C25          1.6220    -2.1450     6.7620 ca         1 JR9      -0.104000
     26 O26          0.3720    -5.2890     7.8160 os         1 JR9      -0.324900
     27 C27          1.7530    -5.6310     7.5930 c3         1 JR9       0.331200
     28 O28          2.4280    -4.3590     7.6190 os         1 JR9      -0.326900
     29 Br          -2.2960    -0.9820     6.0870 br         1 JR9      -0.063100
     30 H1           1.8700     0.0000    -0.9450 h4         1 JR9       0.035100
     31 H2           3.1240    -0.0000     1.1220 h4         1 JR9       0.173000
     32 H3          -2.5710    -0.8660     1.0730 hn         1 JR9       0.446300
     33 H4          -2.5700     0.8670     1.0730 hn         1 JR9       0.446300
     34 H5           3.8960     0.8840     2.3750 h1         1 JR9       0.047700
     35 H6           5.6070    -2.1360     3.5600 ha         1 JR9       0.134500
     36 H7           7.9160    -2.1360     4.4240 ha         1 JR9       0.133500
     37 H8           9.0700    -0.0020     4.8590 ha         1 JR9       0.133000
     38 H9           7.9170     2.1340     4.4230 ha         1 JR9       0.133500
     39 H10          5.6080     2.1350     3.5560 ha         1 JR9       0.134500
     40 H11          1.5570     0.4280     6.3120 hc         1 JR9       0.066200
     41 H12         -0.2040     0.5890     6.2750 hc         1 JR9       0.066200
     42 H13         -1.8770    -3.7240     7.1010 ha         1 JR9       0.156000
     43 H14          2.6030    -1.6900     6.6870 ha         1 JR9       0.150000
     44 H15          1.8660    -6.0880     6.6170 h2         1 JR9       0.072200
     45 H16          2.1130    -6.2550     8.4020 h2         1 JR9       0.072200
     46 H17          3.3480     0.4690     4.9570 hn         1 JR9       0.444800
     47 H18          3.8950    -0.8850     2.3750 h1         1 JR9       0.047700
@<TRIPOS>BOND
     1    17    16 ar
     2    17    18 ar
     3    16    15 ar
     4    18    13 ar
     5     2     3 2
     6     2     1 1
     7    15    14 ar
     8     3     4 1
     9    13    14 ar
    10    13    12 1
    11     1     6 2
    12    11    12 1
    13    11     7 1
    14     4     7 1
    15     4     5 1
    16     7     8 2
    17     6     5 1
    18     6    10 1
    19    27    28 1
    20    27    26 1
    21    28    24 1
    22     5     9 2
    23    26    23 1
    24    24    23 ar
    25    24    25 ar
    26    23    22 ar
    27    25    20 ar
    28     8     9 1
    29     8    19 1
    30    22    21 ar
    31    20    21 ar
    32    20    19 1
    33    21    29 1
    34     2    30 1
    35     3    31 1
    36    10    32 1
    37    10    33 1
    38    12    34 1
    39    14    35 1
    40    15    36 1
    41    16    37 1
    42    17    38 1
    43    18    39 1
    44    19    40 1
    45    19    41 1
    46    22    42 1
    47    25    43 1
    48    27    44 1
    49    27    45 1
    50    11    46 1
    51    12    47 1
@<TRIPOS>SUBSTRUCTURE
     1 JR9         1 TEMP              0 ****  ****    0 ROOT
