@<TRIPOS>MOLECULE
JR9
   47    51     1     0     0
SMALL
bcc


@<TRIPOS>ATOM
      1 N01          0.0000     0.0000     0.0000 nc         1 JR9      -0.637000
      2 C02          1.3400     0.0000     0.0000 cc         1 JR9       0.432200
      3 C03          2.0410     0.0000     1.1480 cd         1 JR9      -0.455600
      4 N04          1.3800     0.0000     2.3550 na         1 JR9       0.607700
      5 C05          0.0030    -0.0000     2.3640 cd         1 JR9      -0.407600
      6 C06         -0.6860    -0.0000     1.1250 cd         1 JR9       0.608200
      7 C07          1.7900    -0.0000     3.6520 cd         1 JR9      -0.265100
      8 C08          0.6690     0.0000     4.4240 cc         1 JR9       0.001400
      9 N09         -0.3980     0.0000     3.6230 nc         1 JR9      -0.169600
     10 N10         -2.0710     0.0000     1.0980 nv         1 JR9      -0.638500
     11 N11          3.1110    -0.0000     4.1060 nu         1 JR9      -0.385000
     12 C12          4.0550    -0.0000     2.9800 c3         1 JR9       0.176100
     13 C13          5.4660    -0.0010     3.5080 ca         1 JR9      -0.117300
     14 C14          6.1140    -1.1970     3.7500 ca         1 JR9      -0.084500
     15 C15          7.4080    -1.1980     4.2340 ca         1 JR9      -0.099000
     16 C16          8.0560    -0.0010     4.4770 ca         1 JR9      -0.091000
     17 C17          7.4080     1.1960     4.2360 ca         1 JR9      -0.099000
     18 C18          6.1160     1.1970     3.7450 ca         1 JR9      -0.084500
     19 C19          0.6370     0.0000     5.9310 c3         1 JR9       0.128100
     20 C20          0.4970    -1.4150     6.4300 ca         1 JR9      -0.063300
     21 C21         -0.7590    -1.9830     6.5500 ca         1 JR9       0.039100
     22 C22         -0.8930    -3.2810     7.0080 ca         1 JR9      -0.073000
     23 C23          0.2320    -4.0160     7.3480 ca         1 JR9       0.055100
     24 C24          1.4960    -3.4430     7.2270 ca         1 JR9       0.060100
     25 C25          1.6220    -2.1450     6.7620 ca         1 JR9      -0.082000
     26 O26          0.3720    -5.2890     7.8160 os         1 JR9      -0.312900
     27 C27          1.7530    -5.6310     7.5930 c3         1 JR9       0.431200
     28 O28          2.4280    -4.3590     7.6190 os         1 JR9      -0.314900
     29 Br          -2.2960    -0.9820     6.0870 br         1 JR9      -0.094100
     30 H1           1.8700     0.0000    -0.9450 h4         1 JR9      -0.011900
     31 H2           3.1240    -0.0000     1.1220 h4         1 JR9       0.172000
     32 H3          -2.5710    -0.8660     1.0730 hn         1 JR9       0.283800
     33 H4          -2.5700     0.8670     1.0730 hn         1 JR9       0.283800
     34 H5           3.8960     0.8840     2.3750 h1         1 JR9       0.023700
     35 H6           5.6070    -2.1360     3.5600 ha         1 JR9       0.107500
     36 H7           7.9160    -2.1360     4.4240 ha         1 JR9       0.105500
     37 H8           9.0700    -0.0020     4.8590 ha         1 JR9       0.105000
     38 H9           7.9170     2.1340     4.4230 ha         1 JR9       0.105500
     39 H10          5.6080     2.1350     3.5560 ha         1 JR9       0.107500
     40 H11          1.5570     0.4280     6.3120 hc         1 JR9       0.029200
     41 H12         -0.2040     0.5890     6.2750 hc         1 JR9       0.029200
     42 H13         -1.8770    -3.7240     7.1010 ha         1 JR9       0.125000
     43 H14          2.6030    -1.6900     6.6870 ha         1 JR9       0.119000
     44 H15          1.8660    -6.0880     6.6170 h2         1 JR9       0.014700
     45 H16          2.1130    -6.2550     8.4020 h2         1 JR9       0.014700
     46 H17          3.3480     0.4690     4.9570 hn         1 JR9       0.297800
     47 H18          3.8950    -0.8850     2.3750 h1         1 JR9       0.023700
@<TRIPOS>BOND
     1     1     2 1   
     2     1     6 2   
     3     2     3 2   
     4     2    30 1   
     5     3     4 1   
     6     3    31 1   
     7     4     5 1   
     8     4     7 1   
     9     5     6 1   
    10     5     9 2   
    11     6    10 1   
    12     7     8 2   
    13     7    11 1   
    14     8     9 1   
    15     8    19 1   
    16    10    32 1   
    17    10    33 1   
    18    11    12 1   
    19    11    46 1   
    20    12    13 1   
    21    12    34 1   
    22    12    47 1   
    23    13    14 ar  
    24    13    18 ar  
    25    14    15 ar  
    26    14    35 1   
    27    15    16 ar  
    28    15    36 1   
    29    16    17 ar  
    30    16    37 1   
    31    17    18 ar  
    32    17    38 1   
    33    18    39 1   
    34    19    20 1   
    35    19    40 1   
    36    19    41 1   
    37    20    21 ar  
    38    20    25 ar  
    39    21    22 ar  
    40    21    29 1   
    41    22    23 ar  
    42    22    42 1   
    43    23    24 ar  
    44    23    26 1   
    45    24    25 ar  
    46    24    28 1   
    47    25    43 1   
    48    26    27 1   
    49    27    28 1   
    50    27    44 1   
    51    27    45 1   
@<TRIPOS>SUBSTRUCTURE
     1 JR9         1 TEMP              0 ****  ****    0 ROOT
