@<TRIPOS>MOLECULE
molecule
   28    29     1     0     0
SMALL
bcc


@<TRIPOS>ATOM
      1 CAH          0.0000     0.0000     0.0000 c3         1 JRB       0.170300
      2 CAF          1.5300     0.0000     0.0000 c3         1 JRB       0.155800
      3 NAJ          2.0170     0.0000     1.3880 n7         1 JRB      -0.821200
      4 CAG          1.5300    -1.1800     2.1130 c3         1 JRB       0.155800
      5 CAI         -0.0010    -1.1800     2.1130 c3         1 JRB       0.170300
      6 NAM         -0.4880    -1.1800     0.7270 nh         1 JRB      -0.618000
      7 CAL         -1.8860    -1.2530     0.6850 ca         1 JRB       0.004600
      8 CAE         -2.6510    -0.2250     1.2140 ca         1 JRB      -0.119000
      9 CAC         -4.0310    -0.2990     1.1730 ca         1 JRB      -0.176000
     10 CAB         -4.6520    -1.3960     0.6050 ca         1 JRB      -0.089000
     11 CAD         -3.8970    -2.4250     0.0760 ca         1 JRB      -0.203000
     12 CAK         -2.5120    -2.3570     0.1080 ca         1 JRB       0.223600
     13 NAA         -1.7450    -3.3960    -0.4340 nv         1 JRB      -0.921200
     14 HAH1        -0.3600     0.8980     0.4880 h1         1 JRB       0.045200
     15 HAH2        -0.3600    -0.0320    -1.0210 h1         1 JRB       0.045200
     16 HAF1         1.8900     0.8860    -0.5080 h1         1 JRB       0.037200
     17 HAF2         1.8900    -0.8860    -0.5090 h1         1 JRB       0.037200
     18 HAJ          3.0180     0.0030     1.3900 hn         1 JRB       0.352800
     19 HAG1         1.8890    -1.1490     3.1340 h1         1 JRB       0.037200
     20 HAG2         1.8900    -2.0770     1.6250 h1         1 JRB       0.037200
     21 HAI1        -0.3620    -0.2940     2.6210 h1         1 JRB       0.045200
     22 HAI2        -0.3610    -2.0670     2.6210 h1         1 JRB       0.045200
     23 HAE         -2.1690     0.6370     1.6600 ha         1 JRB       0.133000
     24 HAC         -4.6280     0.5050     1.5860 ha         1 JRB       0.127000
     25 HAB         -5.7340    -1.4500     0.5770 ha         1 JRB       0.127000
     26 HAD         -4.3870    -3.2830    -0.3700 ha         1 JRB       0.130000
     27 HAA1        -2.1270    -4.3190    -0.4970 hn         1 JRB       0.433300
     28 HAA2        -0.8190    -3.2140    -0.7660 hn         1 JRB       0.433300
@<TRIPOS>BOND
     1     1     2 1
     2     1     6 1
     3     2     3 1
     4     3     4 1
     5     4     5 1
     6     5     6 1
     7     6     7 1
     8     7     8 ar
     9     7    12 ar
    10     8     9 ar
    11     9    10 ar
    12    10    11 ar
    13    11    12 ar
    14    12    13 1
    15     1    14 1
    16     1    15 1
    17     2    16 1
    18     2    17 1
    19     3    18 1
    20     4    19 1
    21     4    20 1
    22     5    21 1
    23     5    22 1
    24     8    23 1
    25     9    24 1
    26    10    25 1
    27    11    26 1
    28    13    27 1
    29    13    28 1
@<TRIPOS>SUBSTRUCTURE
     1 JRB         1 TEMP              0 ****  ****    0 ROOT
