@<TRIPOS>MOLECULE
JRB
   28    29     1     0     0
SMALL
bcc


@<TRIPOS>ATOM
      1 CAH          0.0000     0.0000     0.0000 c3         1 JRB       0.146300
      2 CAF          1.5300     0.0000     0.0000 c3         1 JRB       0.145300
      3 NAJ          2.0170     0.0000     1.3880 n7         1 JRB      -0.584200
      4 CAG          1.5300    -1.1800     2.1130 c3         1 JRB       0.145300
      5 CAI         -0.0010    -1.1800     2.1130 c3         1 JRB       0.146300
      6 NAM         -0.4880    -1.1800     0.7270 nh         1 JRB      -0.399000
      7 CAL         -1.8860    -1.2530     0.6850 ca         1 JRB      -0.073400
      8 CAE         -2.6510    -0.2250     1.2140 ca         1 JRB      -0.086000
      9 CAC         -4.0310    -0.2990     1.1730 ca         1 JRB      -0.153000
     10 CAB         -4.6520    -1.3960     0.6050 ca         1 JRB      -0.054000
     11 CAD         -3.8970    -2.4250     0.0760 ca         1 JRB      -0.181000
     12 CAK         -2.5120    -2.3570     0.1080 ca         1 JRB       0.076600
     13 NAA         -1.7450    -3.3960    -0.4340 nv         1 JRB      -0.451200
     14 HAH1        -0.3600     0.8980     0.4880 h1         1 JRB       0.018700
     15 HAH2        -0.3600    -0.0320    -1.0210 h1         1 JRB       0.018700
     16 HAF1         1.8900     0.8860    -0.5080 h1         1 JRB       0.008950
     17 HAF2         1.8900    -0.8860    -0.5090 h1         1 JRB       0.008950
     18 HAJ          3.0180     0.0030     1.3900 hn         1 JRB       0.251800
     19 HAG1         1.8890    -1.1490     3.1340 h1         1 JRB       0.008950
     20 HAG2         1.8900    -2.0770     1.6250 h1         1 JRB       0.008950
     21 HAI1        -0.3620    -0.2940     2.6210 h1         1 JRB       0.018700
     22 HAI2        -0.3610    -2.0670     2.6210 h1         1 JRB       0.018700
     23 HAE         -2.1690     0.6370     1.6600 ha         1 JRB       0.109000
     24 HAC         -4.6280     0.5050     1.5860 ha         1 JRB       0.103000
     25 HAB         -5.7340    -1.4500     0.5770 ha         1 JRB       0.097000
     26 HAD         -4.3870    -3.2830    -0.3700 ha         1 JRB       0.108000
     27 HAA1        -2.1270    -4.3190    -0.4970 hn         1 JRB       0.270300
     28 HAA2        -0.8190    -3.2140    -0.7660 hn         1 JRB       0.270300
@<TRIPOS>BOND
     1     1     2 1   
     2     1     6 1   
     3     1    14 1   
     4     1    15 1   
     5     2     3 1   
     6     2    16 1   
     7     2    17 1   
     8     3     4 1   
     9     3    18 1   
    10     4     5 1   
    11     4    19 1   
    12     4    20 1   
    13     5     6 1   
    14     5    21 1   
    15     5    22 1   
    16     6     7 1   
    17     7     8 ar  
    18     7    12 ar  
    19     8     9 ar  
    20     8    23 1   
    21     9    10 ar  
    22     9    24 1   
    23    10    11 ar  
    24    10    25 1   
    25    11    12 ar  
    26    11    26 1   
    27    12    13 1   
    28    13    27 1   
    29    13    28 1   
@<TRIPOS>SUBSTRUCTURE
     1 JRB         1 TEMP              0 ****  ****    0 ROOT
