@<TRIPOS>MOLECULE
JRG
   54    54     1     0     0
SMALL
bcc


@<TRIPOS>ATOM
      1 C            0.0000     0.0000     0.0000 c          1 JRG       0.979600
      2 N            1.9950     1.1960    -0.6900 ns         1 JRG      -0.195900
      3 O           -0.6040     0.9060    -0.5230 o          1 JRG      -0.906300
      4 CA           1.5070     0.0000     0.0000 c3         1 JRG      -0.074300
      5 CB           2.0180     0.0000     1.4430 c3         1 JRG      -0.023400
      6 CAA         -0.5940     6.4540    -4.5920 c3         1 JRG       0.103000
      7 OAD          1.8350     0.2000    -2.6700 o          1 JRG      -0.708100
      8 CAI          9.7000    -0.4570     7.4730 ca         1 JRG      -0.102000
      9 CAJ          7.4450    -0.2410     8.2710 ca         1 JRG      -0.102000
     10 CAK          9.2460    -0.4570     6.1710 ca         1 JRG      -0.056000
     11 CAL          6.9780    -0.2470     6.9730 ca         1 JRG      -0.056000
     12 CAM          4.0520    -0.1260     2.8870 c3         1 JRG      -0.043400
     13 CAN          3.5420    -0.1260     1.4450 c3         1 JRG      -0.036400
     14 CAO          5.5770    -0.2510     2.8890 c3         1 JRG       0.039000
     15 CAR          2.6210     3.7270    -4.6490 c3         1 JRG      -0.007400
     16 NAS          6.0650    -0.2510     4.2700 ns         1 JRG      -0.179900
     17 NAU          2.5740     2.2950    -2.6670 ns         1 JRG      -0.199900
     18 SAV          1.1100     5.9810    -4.9980 ss         1 JRG      -0.458200
     19 CAX          4.0500     1.7060    -4.5010 c          1 JRG       0.980600
     20 CAY          2.1240     1.1940    -2.0320 c          1 JRG       0.598100
     21 CAZ          7.3850    -0.3520     4.5180 c          1 JRG       0.575700
     22 CBA          8.8020    -0.3510     8.5220 ca         1 JRG       0.226900
     23 CBB          7.8790    -0.3520     5.9120 ca         1 JRG      -0.133600
     24 CBD          2.7130     2.2930    -4.1260 c3         1 JRG      -0.074300
     25 OXT         -0.6710    -1.0040     0.5860 o          1 JRG      -0.906300
     26 HN           2.1970     2.0260    -0.1700 hn         1 JRG       0.139500
     27 HA           1.8680    -0.8850    -0.5110 h1         1 JRG       0.061700
     28 HB           1.5860    -0.8360     1.9790 hc         1 JRG       0.018200
     29 HBA          1.7310     0.9260     1.9270 hc         1 JRG       0.018200
     30 HAA         -0.7400     6.3900    -3.5200 h1         1 JRG       0.022033
     31 HAAA        -1.2830     5.7830    -5.0900 h1         1 JRG       0.022033
     32 HAAB        -0.7750     7.4690    -4.9220 h1         1 JRG       0.022033
     33 HAI         10.7610    -0.5390     7.6760 ha         1 JRG       0.116000
     34 HAJ          6.7470    -0.1600     9.0960 ha         1 JRG       0.116000
     35 HAK          9.9490    -0.5390     5.3510 ha         1 JRG       0.124000
     36 HAL          5.9160    -0.1630     6.7770 ha         1 JRG       0.124000
     37 HAM          3.6200    -0.9620     3.4230 hc         1 JRG       0.008200
     38 HAMA         3.7650     0.8000     3.3710 hc         1 JRG       0.008200
     39 HAN          3.9740     0.7100     0.9090 hc         1 JRG       0.026700
     40 HANA         3.8280    -1.0520     0.9610 hc         1 JRG       0.026700
     41 HAO          6.0090     0.5850     2.3530 h1         1 JRG       0.035200
     42 HAOA         5.8640    -1.1770     2.4050 h1         1 JRG       0.035200
     43 HAP          1.0280     4.2700    -3.3110 h1         1 JRG       0.040700
     44 HAPA         0.4850     3.6630    -4.8810 h1         1 JRG       0.040700
     45 HAR          3.3550     4.3440    -4.1450 hc         1 JRG       0.032700
     46 HARA         2.8120     3.7360    -5.7150 hc         1 JRG       0.032700
     47 HNAS         5.4170    -0.1910     5.0300 hn         1 JRG       0.172500
     48 HNAU         2.8490     3.0990    -2.1400 hn         1 JRG       0.141500
     49 HBD          1.9210     1.6970    -4.5630 h1         1 JRG       0.060700
     50 CAP          1.2190     4.2790    -4.3770 c3         1 JRG       0.096700
     51 IAH          9.5000    -0.3590    10.4980 i          1 JRG      -0.333900
     52 OAC          4.3980     1.6040    -5.7940 o          1 JRG      -0.901300
     53 OAE          8.1720    -0.4440     3.5950 o          1 JRG      -0.647100
     54 OAG          4.8080     1.3290    -3.6390 o          1 JRG      -0.901300
@<TRIPOS>BOND
     1     1     3 1   
     2     1     4 1   
     3     1    25 1   
     4     2     4 1   
     5     2    20 1   
     6     2    26 1   
     7     4     5 1   
     8     4    27 1   
     9     5    13 1   
    10     5    28 1   
    11     5    29 1   
    12     6    18 1   
    13     6    30 1   
    14     6    31 1   
    15     6    32 1   
    16     7    20 2   
    17     8    10 ar  
    18     8    22 ar  
    19     8    33 1   
    20     9    11 ar  
    21     9    22 ar  
    22     9    34 1   
    23    10    23 ar  
    24    10    35 1   
    25    11    23 ar  
    26    11    36 1   
    27    12    13 1   
    28    12    14 1   
    29    12    37 1   
    30    12    38 1   
    31    13    39 1   
    32    13    40 1   
    33    14    16 1   
    34    14    41 1   
    35    14    42 1   
    36    15    24 1   
    37    15    45 1   
    38    15    46 1   
    39    15    50 1   
    40    16    21 1   
    41    16    47 1   
    42    17    20 1   
    43    17    24 1   
    44    17    48 1   
    45    18    50 1   
    46    19    24 1   
    47    19    52 1   
    48    19    54 1   
    49    21    23 1   
    50    21    53 2   
    51    22    51 1   
    52    24    49 1   
    53    43    50 1   
    54    44    50 1   
@<TRIPOS>SUBSTRUCTURE
     1 JRG         1 TEMP              0 ****  ****    0 ROOT
