@<TRIPOS>MOLECULE
molecule
   41    43     1     0     0
SMALL
bcc


@<TRIPOS>ATOM
      1 N01          0.0000     0.0000     0.0000 nz         1 JRJ      -0.810600
      2 C02          1.4690     0.0000     0.0000 c3         1 JRJ       0.094800
      3 C03          1.9790     0.0000     1.4430 c3         1 JRJ      -0.112400
      4 C04          3.5090    -0.0010     1.4430 c3         1 JRJ      -0.096400
      5 C05          4.0190    -0.0010     2.8860 c3         1 JRJ       0.071300
      6 N06          5.4840    -0.0010     2.8860 na         1 JRJ       0.109400
      7 C07          6.2770     0.8970     3.5160 cc         1 JRJ      -0.276600
      8 C08          7.5510     0.5230     3.2530 cd         1 JRJ       0.286600
      9 C09          8.8060     1.2050     3.7320 c3         1 JRJ      -0.114700
     10 C10          9.6890     0.1930     4.4660 c3         1 JRJ       0.082300
     11 N11         10.9090     0.8560     4.9310 na         1 JRJ       0.374100
     12 N12         11.0180     1.4250     6.0820 nc         1 JRJ      -0.258400
     13 C13         12.2380     1.9250     6.1980 ca         1 JRJ      -0.094500
     14 C14         12.9580     2.6380     7.1740 ca         1 JRJ       0.063600
     15 Br1         12.1400     3.0940     8.8170 br         1 JRJ      -0.031600
     16 C16         14.2450     2.9980     6.9260 ca         1 JRJ       0.013600
     17 Br2         15.2040     3.9550     8.2450 br         1 JRJ      -0.022600
     18 C18         14.8780     2.6770     5.7230 ca         1 JRJ       0.013600
     19 Br3         16.6720     3.2120     5.4540 br         1 JRJ      -0.022600
     20 C20         14.2380     1.9900     4.7400 ca         1 JRJ       0.063600
     21 Br4         15.1350     1.5750     3.1270 br         1 JRJ      -0.031600
     22 C22         12.9030     1.5880     4.9310 ca         1 JRJ      -0.094500
     23 N23         11.9910     0.9280     4.2360 nc         1 JRJ      -0.258400
     24 N24          7.4760    -0.5700     2.4870 nd         1 JRJ      -0.341000
     25 N25          6.2380    -0.8590     2.2910 nc         1 JRJ      -0.204800
     26 H011        -0.3340     0.0000    -0.9440 hn         1 JRJ       0.459133
     27 H012        -0.3340     0.8170     0.4720 hn         1 JRJ       0.459133
     28 H021         1.8300    -0.8850    -0.5110 hx         1 JRJ       0.117700
     29 H022         1.8300     0.8850    -0.5110 hx         1 JRJ       0.117700
     30 H031         1.6180    -0.8840     1.9530 hc         1 JRJ       0.067200
     31 H032         1.6180     0.8850     1.9530 hc         1 JRJ       0.067200
     32 H041         3.8700    -0.8860     0.9330 hc         1 JRJ       0.080700
     33 H042         3.8710     0.8830     0.9320 hc         1 JRJ       0.080700
     34 H051         3.6580     0.8840     3.3960 h1         1 JRJ       0.074700
     35 H052         3.6570    -0.8850     3.3960 h1         1 JRJ       0.074700
     36 H07          5.9630     1.5980     4.2800 h4         1 JRJ       0.191000
     37 H091         8.5450     2.0120     4.4060 hc         1 JRJ       0.078700
     38 H092         9.3460     1.6060     2.8820 hc         1 JRJ       0.078700
     39 H101         9.9510    -0.6140     3.7920 h1         1 JRJ       0.095700
     40 H102         9.1500    -0.2070     5.3150 h1         1 JRJ       0.095700
     41 H013        -0.3340    -0.8200     0.4660 hn         1 JRJ       0.459133
@<TRIPOS>BOND
     1     1     2 1
     2     2     3 1
     3     3     4 1
     4     4     5 1
     5     5     6 1
     6     6     7 1
     7     6    25 1
     8     7     8 2
     9     8     9 1
    10     8    24 1
    11     9    10 1
    12    10    11 1
    13    11    12 1
    14    11    23 1
    15    12    13 2
    16    13    14 ar
    17    13    22 ar
    18    14    15 1
    19    14    16 ar
    20    16    17 1
    21    16    18 ar
    22    18    19 1
    23    18    20 ar
    24    20    21 1
    25    20    22 ar
    26    22    23 2
    27    24    25 2
    28     1    26 1
    29     1    27 1
    30     2    28 1
    31     2    29 1
    32     3    30 1
    33     3    31 1
    34     4    32 1
    35     4    33 1
    36     5    34 1
    37     5    35 1
    38     7    36 1
    39     9    37 1
    40     9    38 1
    41    10    39 1
    42    10    40 1
    43    41     1 1
@<TRIPOS>SUBSTRUCTURE
     1 JRJ         1 TEMP              0 ****  ****    0 ROOT
