@<TRIPOS>MOLECULE
molecule
   29    31     1     0     0
SMALL
bcc


@<TRIPOS>ATOM
      1 CAA          0.0000     0.0000     0.0000 c3         1 JRO      -0.049900
      2 OAB          3.1130     0.6130    -3.2000 o          1 JRO      -0.551500
      3 OAC          9.4840    -0.0320     2.2750 oh         1 JRO      -0.518100
      4 OAD          8.1680     0.0370    -2.2740 oh         1 JRO      -0.511100
      5 OAE          6.8880     0.0290     3.1240 oh         1 JRO      -0.506100
      6 CAF          8.7960     0.0000     0.0000 ca         1 JRO      -0.211000
      7 CAG          2.3610     0.1670     0.6340 cc         1 JRO      -0.222200
      8 CAH          4.7850     0.0920     1.2530 ca         1 JRO      -0.114000
      9 CAI          5.4510     0.1070    -1.5430 ca         1 JRO      -0.010000
     10 OAJ          1.8230    -0.3230    -1.6110 os         1 JRO      -0.324200
     11 CAK          1.4670    -0.0520    -0.3420 cd         1 JRO       0.115900
     12 CAL          8.4790     0.0000     1.3590 ca         1 JRO       0.111100
     13 CAM          7.8260     0.0360    -0.9590 ca         1 JRO       0.149100
     14 CAN          7.1700     0.0300     1.7930 ca         1 JRO       0.073100
     15 CAO          3.0010     0.1730    -2.0710 c          1 JRO       0.757200
     16 CAP          3.7920     0.1290     0.2970 ca         1 JRO      -0.004800
     17 CAQ          6.4660     0.0730    -0.5790 ca         1 JRO      -0.081000
     18 CAR          6.1280     0.0630     0.8460 ca         1 JRO      -0.001000
     19 CAS          4.1360     0.1440    -1.1320 ca         1 JRO      -0.200600
     20 HAA         -0.2580     0.9970     0.3360 hc         1 JRO       0.061700
     21 HAAA        -0.2120    -0.7120     0.7880 hc         1 JRO       0.061700
     22 HAAB        -0.5840    -0.2480    -0.8780 hc         1 JRO       0.061700
     23 HOAC         9.8370    -0.9050     2.3240 ho         1 JRO       0.431000
     24 HOAD         8.6400     0.8280    -2.4760 ho         1 JRO       0.429000
     25 HOAE         7.0250     0.8940     3.4750 ho         1 JRO       0.426000
     26 HAF          9.8360    -0.0300    -0.3000 ha         1 JRO       0.150000
     27 HAG          2.0380     0.5770     1.5830 ha         1 JRO       0.156000
     28 HAH          4.5380     0.2440     2.2960 ha         1 JRO       0.155000
     29 HAI          5.6880    -0.0690    -2.5850 ha         1 JRO       0.169000
@<TRIPOS>BOND
     1    11     1 1
     2     1    20 1
     3     1    21 1
     4     1    22 1
     5     2    15 2
     6    12     3 1
     7     3    23 1
     8     4    13 1
     9     4    24 1
    10    14     5 1
    11     5    25 1
    12    13     6 ar
    13     6    12 ar
    14     6    26 1
    15    16     7 1
    16    11     7 2
    17     7    27 1
    18    18     8 ar
    19    16     8 ar
    20     8    28 1
    21     9    17 ar
    22     9    19 ar
    23     9    29 1
    24    15    10 1
    25    10    11 1
    26    12    14 ar
    27    13    17 ar
    28    18    14 ar
    29    15    19 1
    30    19    16 ar
    31    17    18 ar
@<TRIPOS>SUBSTRUCTURE
     1 JRO         1 TEMP              0 ****  ****    0 ROOT
