@<TRIPOS>MOLECULE
JRO
   29    31     1     0     0
SMALL
bcc


@<TRIPOS>ATOM
      1 CAA        -0.0890    0.0630   -0.0780 c3        1 JRO     -0.060900
      2 OAB         3.0700    0.2340   -3.3010 o         1 JRO     -0.569500
      3 OAC         9.4360   -0.0250    2.3940 oh        1 JRO     -0.511100
      4 OAD         8.0480    0.2000   -2.2590 oh        1 JRO     -0.489100
      5 OAE         6.7740   -0.0720    3.1400 oh        1 JRO     -0.493100
      6 CAF         8.8160    0.0890    0.0310 ca        1 JRO     -0.266000
      7 CAG         2.3280    0.0350    0.6490 cc        1 JRO     -0.221200
      8 CAH         4.7340    0.0150    1.2470 ca        1 JRO     -0.119000
      9 CAI         5.3860    0.1520   -1.4870 ca        1 JRO     -0.005000
     10 OAJ         1.6610    0.1470   -1.6620 os        1 JRO     -0.332200
     11 CAK         1.3750    0.0790   -0.3100 cd        1 JRO      0.119900
     12 CAL         8.4760    0.0200    1.4040 ca        1 JRO      0.077100
     13 CAM         7.8040    0.1320   -0.9080 ca        1 JRO      0.163100
     14 CAN         7.1500   -0.0050    1.8170 ca        1 JRO      0.071100
     15 CAO         2.9890    0.1730   -2.0740 c         1 JRO      0.736200
     16 CAP         3.7280    0.0580    0.3000 ca        1 JRO      0.013200
     17 CAQ         6.4230    0.1080   -0.5260 ca        1 JRO     -0.083000
     18 CAR         6.0940    0.0390    0.8540 ca        1 JRO      0.031000
     19 CAS         4.0640    0.1280   -1.0850 ca        1 JRO     -0.182600
     20 HAA        -0.3040   -0.0010    1.0160 hc        1 JRO      0.065033
     21 HAAA       -0.5470   -0.8160   -0.5970 hc        1 JRO      0.065033
     22 HAAB       -0.5510    0.9930   -0.4930 hc        1 JRO      0.065033
     23 HOAC       10.3040   -0.0010    1.9680 ho        1 JRO      0.432000
     24 HOAD        9.0070    0.2100   -2.3930 ho        1 JRO      0.426000
     25 HOAE        7.5820   -0.0950    3.6770 ho        1 JRO      0.438000
     26 HAF         9.8730    0.1080   -0.2670 ha        1 JRO      0.141000
     27 HAG         2.0570   -0.0180    1.7120 ha        1 JRO      0.156000
     28 HAH         4.4970   -0.0400    2.3220 ha        1 JRO      0.162000
     29 HAI         5.6440    0.2060   -2.5600 ha        1 JRO      0.175000
@<TRIPOS>BOND
     1    1   11 1   
     2    1   20 1   
     3    1   21 1   
     4    1   22 1   
     5    2   15 2   
     6    3   12 1   
     7    3   23 1   
     8    4   13 1   
     9    4   24 1   
    10    5   14 1   
    11    5   25 1   
    12    6   12 ar  
    13    6   13 ar  
    14    6   26 1   
    15    7   11 2   
    16    7   16 1   
    17    7   27 1   
    18    8   16 ar  
    19    8   18 ar  
    20    8   28 1   
    21    9   17 ar  
    22    9   19 ar  
    23    9   29 1   
    24   10   11 1   
    25   10   15 1   
    26   12   14 ar  
    27   13   17 ar  
    28   14   18 ar  
    29   15   19 1   
    30   16   19 ar  
    31   17   18 ar  
@<TRIPOS>SUBSTRUCTURE
     1 JRO         1 TEMP              0 ****  ****    0 ROOT
