@<TRIPOS>MOLECULE
molecule
   56    58     1     0     0
SMALL
bcc


@<TRIPOS>ATOM
      1 C1           0.0000     0.0000     0.0000 c3         1 JRR       0.139400
      2 O1           1.4290     0.0000     0.0000 os         1 JRR      -0.409600
      3 C2          -0.5100     0.0000    -1.4430 c3         1 JRR       0.158800
      4 N2          -0.1210    -1.2550    -2.1000 n7         1 JRR      -0.809200
      5 C3          -0.5950    -1.2910    -3.4890 c3         1 JRR       0.159800
      6 C4          -0.1720    -2.6090    -4.1390 c3         1 JRR      -0.037100
      7 N1'          3.5460    -1.3790     2.5260 n7         1 JRR      -0.792200
      8 C11         -0.6580    -2.6460    -5.5650 ca         1 JRR      -0.058300
      9 C12         -1.9060    -3.1630    -5.8560 ca         1 JRR      -0.167000
     10 C13         -2.3520    -3.1950    -7.1670 ca         1 JRR       0.134900
     11 F13         -3.5720    -3.7010    -7.4530 f          1 JRR      -0.142900
     12 C14         -1.5480    -2.7100    -8.1840 ca         1 JRR      -0.170000
     13 C15         -0.3000    -2.1930    -7.8890 ca         1 JRR      -0.101000
     14 C16          0.1430    -2.1550    -6.5800 ca         1 JRR      -0.139000
     15 N1A          5.2010     2.8980     0.6620 nb         1 JRR      -0.754000
     16 C2'          2.2620    -1.4470     1.7800 c3         1 JRR       0.110800
     17 C2A          5.0510     1.8620    -0.1390 ca         1 JRR       0.464600
     18 C3'          2.0110     0.0000     1.3060 c3         1 JRR       0.136100
     19 C3A          6.0760     1.4520    -0.9700 ca         1 JRR      -0.295300
     20 C4'          3.4050     0.6590     1.2710 c3         1 JRR      -0.061700
     21 C4A          7.2790     2.1460    -0.9560 ca         1 JRR      -0.019300
     22 C5'          4.3820    -0.4460     1.7280 c3         1 JRR       0.139800
     23 C5A          7.4070     3.2290    -0.1060 ca         1 JRR      -0.308300
     24 C6A          6.3330     3.5850     0.7030 ca         1 JRR       0.699200
     25 N6A          6.4490     4.6720     1.5630 nv         1 JRR      -1.039500
     26 C7A          3.7430     1.1130    -0.1500 c3         1 JRR      -0.111700
     27 C8A          8.4190     1.7280    -1.8490 c3         1 JRR      -0.049800
     28 H1          -0.3610    -0.8850     0.5110 h1         1 JRR       0.024700
     29 H1A         -0.3610     0.8840     0.5110 h1         1 JRR       0.024700
     30 H2          -1.5900     0.0890    -1.4440 h1         1 JRR       0.042200
     31 H2A         -0.0790     0.8370    -1.9780 h1         1 JRR       0.042200
     32 HN2         -0.5070    -2.0290    -1.5960 hn         1 JRR       0.349800
     33 H3          -0.1650    -0.4630    -4.0390 h1         1 JRR       0.036200
     34 H3A         -1.6760    -1.2110    -3.5050 h1         1 JRR       0.036200
     35 H4           0.9080    -2.6890    -4.1230 hc         1 JRR       0.057700
     36 H4A         -0.6030    -3.4370    -3.5890 hc         1 JRR       0.057700
     37 HN1'         3.9730    -2.2840     2.5380 hn         1 JRR       0.345800
     38 H12         -2.5150    -3.5870    -5.0670 ha         1 JRR       0.144000
     39 H14         -1.8950    -2.7370    -9.2100 ha         1 JRR       0.145000
     40 H15          0.3290    -1.8110    -8.6840 ha         1 JRR       0.136000
     41 H16          1.1210    -1.7500    -6.3510 ha         1 JRR       0.138000
     42 H2'          2.3570    -2.1110     0.9290 h1         1 JRR       0.046700
     43 H2'A         1.4630    -1.7730     2.4350 h1         1 JRR       0.046700
     44 H3'          1.3700     0.5180     2.0090 h1         1 JRR       0.048700
     45 H3AA         5.9440     0.6000    -1.6250 ha         1 JRR       0.138000
     46 H4'          3.4400     1.4960     1.9580 hc         1 JRR       0.085700
     47 H5'          4.8000    -0.9570     0.8700 h1         1 JRR       0.045200
     48 H5'A         5.1660    -0.0240     2.3440 h1         1 JRR       0.045200
     49 H5A          8.3320     3.7930    -0.0710 ha         1 JRR       0.136000
     50 HN6A         5.6720     5.2900     1.6950 hn         1 JRR       0.436800
     51 HN6B         7.3050     4.8310     2.0550 hn         1 JRR       0.436800
     52 H7A          3.8270     0.2470    -0.7960 hc         1 JRR       0.068700
     53 H7AA         2.9580     1.7630    -0.5170 hc         1 JRR       0.068700
     54 H8A          8.9050     0.8550    -1.4280 hc         1 JRR       0.046367
     55 H8AA         8.0370     1.4890    -2.8340 hc         1 JRR       0.046367
     56 H8AB         9.1340     2.5380    -1.9250 hc         1 JRR       0.046367
@<TRIPOS>BOND
     1     3     1 1
     2     1     2 1
     3     1    28 1
     4     1    29 1
     5     2    18 1
     6     3     4 1
     7     3    30 1
     8     3    31 1
     9     5     4 1
    10     4    32 1
    11     5     6 1
    12     5    33 1
    13     5    34 1
    14     8     6 1
    15     6    35 1
    16     6    36 1
    17    16     7 1
    18    22     7 1
    19     7    37 1
    20     9     8 ar
    21     8    14 ar
    22    10     9 ar
    23     9    38 1
    24    11    10 1
    25    10    12 ar
    26    12    13 ar
    27    12    39 1
    28    13    14 ar
    29    13    40 1
    30    14    41 1
    31    17    15 ar
    32    15    24 ar
    33    18    16 1
    34    16    42 1
    35    16    43 1
    36    26    17 1
    37    17    19 ar
    38    18    20 1
    39    18    44 1
    40    19    21 ar
    41    19    45 1
    42    26    20 1
    43    20    22 1
    44    20    46 1
    45    21    23 ar
    46    21    27 1
    47    22    47 1
    48    22    48 1
    49    24    23 ar
    50    23    49 1
    51    25    24 1
    52    25    50 1
    53    25    51 1
    54    26    52 1
    55    26    53 1
    56    27    54 1
    57    27    55 1
    58    27    56 1
@<TRIPOS>SUBSTRUCTURE
     1 JRR         1 TEMP              0 ****  ****    0 ROOT
