@<TRIPOS>MOLECULE
JRS
   56    58     1     0     0
SMALL
bcc


@<TRIPOS>ATOM
      1 C1           0.0000     0.0000     0.0000 c3         1 JRS       0.210400
      2 O1           1.4300     0.0000     0.0000 os         1 JRS      -0.387600
      3 C2          -0.5100    -0.0010    -1.4420 c3         1 JRS       0.138800
      4 N2          -0.1210    -1.2570    -2.0980 n7         1 JRS      -0.574200
      5 C3          -0.5950    -1.2930    -3.4880 c3         1 JRS       0.143800
      6 C4          -0.1730    -2.6130    -4.1360 c3         1 JRS       0.027900
      7 N1'          3.3630    -1.3170     2.7860 n7         1 JRS      -0.591200
      8 C11         -0.6590    -2.6500    -5.5630 ca         1 JRS      -0.062300
      9 C12         -1.9060    -3.1680    -5.8540 ca         1 JRS      -0.133000
     10 C13         -2.3530    -3.2010    -7.1640 ca         1 JRS       0.106900
     11 F13         -3.5740    -3.7060    -7.4490 f          1 JRS      -0.129900
     12 C14         -1.5490    -2.7160    -8.1810 ca         1 JRS      -0.137000
     13 C15         -0.3020    -2.1990    -7.8880 ca         1 JRS      -0.072000
     14 C16          0.1420    -2.1620    -6.5780 ca         1 JRS      -0.109000
     15 N1A          5.7890     2.1800     2.0390 nb         1 JRS      -0.654000
     16 C2'          2.2690    -1.4450     1.7990 c3         1 JRS       0.115800
     17 C2A          4.8140     2.6520     1.2850 ca         1 JRS       0.428600
     18 C3'          2.0110     0.0000     1.3060 c3         1 JRS       0.164100
     19 C3A          5.0560     3.6420     0.3540 ca         1 JRS      -0.284300
     20 C4'          3.4480     0.5830     1.2730 c3         1 JRS      -0.060700
     21 C4A          6.3420     4.1450     0.2120 ca         1 JRS      -0.006300
     22 C5'          4.1220    -0.0890     2.4880 c3         1 JRS       0.146800
     23 C5A          7.3440     3.6310     1.0170 ca         1 JRS      -0.309300
     24 C6A          7.0290     2.6340     1.9350 ca         1 JRS       0.514200
     25 N6A          8.0260     2.1080     2.7490 nv         1 JRS      -0.542500
     26 C7A          3.4200     2.1030     1.4430 c3         1 JRS      -0.063700
     27 C8A          6.6420     5.2250    -0.7940 c3         1 JRS       0.060200
     28 H1          -0.3610     0.8850     0.5100 h1         1 JRS      -0.008800
     29 H1A         -0.3610    -0.8840     0.5110 h1         1 JRS      -0.008800
     30 H2          -0.0790     0.8360    -1.9790 h1         1 JRS       0.013200
     31 H2A         -1.5900     0.0880    -1.4430 h1         1 JRS       0.013200
     32 HN2         -0.5080    -2.0300    -1.5940 hn         1 JRS       0.250800
     33 H3          -1.6750    -1.2120    -3.5030 h1         1 JRS       0.009200
     34 H3A         -0.1630    -0.4660    -4.0380 h1         1 JRS       0.009200
     35 H4           0.9070    -2.6930    -4.1210 hc         1 JRS       0.025700
     36 H4A         -0.6040    -3.4400    -3.5860 hc         1 JRS       0.025700
     37 HN1'         3.9700    -2.1100     2.7160 hn         1 JRS       0.249800
     38 H12         -2.5320    -3.5530    -5.0580 ha         1 JRS       0.121000
     39 H14         -1.8970    -2.7440    -9.2070 ha         1 JRS       0.118000
     40 H15          0.3270    -1.8180    -8.6840 ha         1 JRS       0.106000
     41 H16          1.1200    -1.7560    -6.3490 ha         1 JRS       0.113000
     42 H2'          1.3810    -1.8450     2.2730 h1         1 JRS       0.017200
     43 H2'A         2.5800    -2.0740     0.9740 h1         1 JRS       0.017200
     44 H3'          1.3930     0.5420     2.0120 h1         1 JRS       0.023700
     45 H3AA         4.2490     4.0230    -0.2610 ha         1 JRS       0.121000
     46 H4'          3.9510     0.3030     0.3560 hc         1 JRS       0.046700
     47 H5'          4.0910     0.5780     3.3410 h1         1 JRS       0.027200
     48 H5'A         5.1480    -0.3410     2.2460 h1         1 JRS       0.027200
     49 H5A          8.3590     4.0000     0.9330 ha         1 JRS       0.118000
     50 HN6A         8.9880     2.2830     2.5370 hn         1 JRS       0.270300
     51 HN6B         7.7790     1.5960     3.5730 hn         1 JRS       0.270300
     52 H7A          3.0450     2.3500     2.4290 hc         1 JRS       0.027200
     53 H7AA         2.7730     2.5390     0.6910 hc         1 JRS       0.027200
     54 H8A          5.7920     5.8930    -0.8710 hc         1 JRS       0.010033
     55 H8AA         7.5130     5.7840    -0.4750 hc         1 JRS       0.010033
     56 H8AB         6.8350     4.7750    -1.7600 hc         1 JRS       0.010033
@<TRIPOS>BOND
     1     1     2 1   
     2     1     3 1   
     3     1    28 1   
     4     1    29 1   
     5     2    18 1   
     6     3     4 1   
     7     3    30 1   
     8     3    31 1   
     9     4     5 1   
    10     4    32 1   
    11     5     6 1   
    12     5    33 1   
    13     5    34 1   
    14     6     8 1   
    15     6    35 1   
    16     6    36 1   
    17     7    16 1   
    18     7    22 1   
    19     7    37 1   
    20     8     9 ar  
    21     8    14 ar  
    22     9    10 ar  
    23     9    38 1   
    24    10    11 1   
    25    10    12 ar  
    26    12    13 ar  
    27    12    39 1   
    28    13    14 ar  
    29    13    40 1   
    30    14    41 1   
    31    15    17 ar  
    32    15    24 ar  
    33    16    18 1   
    34    16    42 1   
    35    16    43 1   
    36    17    19 ar  
    37    17    26 1   
    38    18    20 1   
    39    18    44 1   
    40    19    21 ar  
    41    19    45 1   
    42    20    22 1   
    43    20    26 1   
    44    20    46 1   
    45    21    23 ar  
    46    21    27 1   
    47    22    47 1   
    48    22    48 1   
    49    23    24 ar  
    50    23    49 1   
    51    24    25 1   
    52    25    50 1   
    53    25    51 1   
    54    26    52 1   
    55    26    53 1   
    56    27    54 1   
    57    27    55 1   
    58    27    56 1   
@<TRIPOS>SUBSTRUCTURE
     1 JRS         1 TEMP              0 ****  ****    0 ROOT
