@<TRIPOS>MOLECULE
molecule
   24    23     1     0     0
SMALL
bcc


@<TRIPOS>ATOM
      1 C07          0.0000     0.0000     0.0000 c          1 JRY       0.991600
      2 C09          2.0800    -0.0000     1.2690 c3         1 JRY       0.131000
      3 C10          3.5840    -0.0010     0.9900 c3         1 JRY      -0.102400
      4 C11          4.3490    -0.0020     2.3160 c3         1 JRY      -0.080400
      5 C12          5.8530    -0.0020     2.0370 c3         1 JRY      -0.082400
      6 C13          6.6170    -0.0030     3.3620 c3         1 JRY      -0.084400
      7 C14          8.1210    -0.0030     3.0830 c3         1 JRY      -0.092100
      8 N08          1.3470     0.0000     0.0000 ns         1 JRY      -0.639900
      9 O15         -0.6080     0.0000     1.0520 o          1 JRY      -0.876800
     10 O1          -0.6730     0.0070    -1.1670 o          1 JRY      -0.876800
     11 H1           1.8180    -0.8850     1.8370 h1         1 JRY       0.026700
     12 H2           3.8460    -0.8850     0.4210 hc         1 JRY       0.034700
     13 H3           4.0870    -0.8880     2.8830 hc         1 JRY       0.039700
     14 H4           4.0870     0.8810     2.8850 hc         1 JRY       0.039700
     15 H5           6.1140     0.8830     1.4700 hc         1 JRY       0.037700
     16 H6           6.1150    -0.8860     1.4680 hc         1 JRY       0.037700
     17 H7           6.3560     0.8800     3.9310 hc         1 JRY       0.037700
     18 H8           6.3560    -0.8890     3.9290 hc         1 JRY       0.037700
     19 H9           8.3830    -0.8870     2.5140 hc         1 JRY       0.027033
     20 H10          8.3830     0.8820     2.5160 hc         1 JRY       0.027033
     21 H11          8.6630    -0.0040     4.0210 hc         1 JRY       0.027033
     22 H12          1.8470     0.0000    -0.8670 hn         1 JRY       0.279500
     23 H14          1.8190     0.8840     1.8370 h1         1 JRY       0.026700
     24 H15          3.8460     0.8840     0.4230 hc         1 JRY       0.034700
@<TRIPOS>BOND
     1     1     9 1
     2     1     8 1
     3     2     8 1
     4     2     3 1
     5     3     4 1
     6     4     5 1
     7     5     6 1
     8     6     7 1
     9     1    10 1
    10     2    11 1
    11     3    12 1
    12     4    13 1
    13     4    14 1
    14     5    15 1
    15     5    16 1
    16     6    17 1
    17     6    18 1
    18     7    19 1
    19     7    20 1
    20     7    21 1
    21     8    22 1
    22     2    23 1
    23     3    24 1
@<TRIPOS>SUBSTRUCTURE
     1 JRY         1 TEMP              0 ****  ****    0 ROOT
