@<TRIPOS>MOLECULE
molecule
   47    48     1     0     0
SMALL
bcc


@<TRIPOS>ATOM
      1 C1           0.0000     0.0000     0.0000 c3         1 JRZ      -0.033100
      2 N1           3.7760    -2.4350     8.4650 n7         1 JRZ      -0.816200
      3 O1           1.6020    -1.1980     4.2980 os         1 JRZ      -0.327900
      4 C2           1.5430     0.0000     0.0000 c3         1 JRZ      -0.085400
      5 O2           2.9980    -0.3160     6.6510 oh         1 JRZ      -0.601800
      6 C3           1.8740     0.0000     1.5070 c3         1 JRZ      -0.021100
      7 C4           0.6800    -0.6480     2.1750 ca         1 JRZ      -0.119300
      8 C5          -0.3960    -0.6490     1.3090 ca         1 JRZ      -0.056300
      9 C6          -1.6040    -1.1960     1.7090 ca         1 JRZ      -0.108300
     10 C7          -2.7780    -1.1960     0.7640 c3         1 JRZ      -0.040800
     11 C8          -1.7380    -1.7420     2.9710 ca         1 JRZ      -0.090000
     12 C9          -0.6650    -1.7430     3.8410 ca         1 JRZ      -0.220000
     13 C10          0.5450    -1.1970     3.4450 ca         1 JRZ       0.154100
     14 C11          1.3940    -1.7770     5.5880 c3         1 JRZ       0.120400
     15 C12          2.6860    -1.6880     6.4030 c3         1 JRZ       0.159100
     16 C13          2.5010    -2.4180     7.7350 c3         1 JRZ       0.155500
     17 C14          1.4430    -1.6940     8.5710 c3         1 JRZ      -0.127100
     18 C16          4.3130    -4.8160     8.6610 c3         1 JRZ      -0.091600
     19 C17          4.8020    -3.2410    10.5370 c3         1 JRZ      -0.091600
     20 H1          -0.3740     1.0160    -0.0430 hc         1 JRZ       0.053200
     21 H1A         -0.3740    -0.5810    -0.8340 hc         1 JRZ       0.053200
     22 HN1          3.8810    -1.5780     8.9720 hn         1 JRZ       0.366800
     23 H2           1.9270     0.8940    -0.4770 hc         1 JRZ       0.048700
     24 H2A          1.9270    -0.8940    -0.4770 hc         1 JRZ       0.048700
     25 HO2          3.8020    -0.0920     6.2120 ho         1 JRZ       0.411000
     26 H3           2.7590    -0.5990     1.6850 hc         1 JRZ       0.056700
     27 H3A          1.9760     1.0200     1.8570 hc         1 JRZ       0.056700
     28 H7          -2.5640    -1.8460    -0.0760 hc         1 JRZ       0.040033
     29 H7A         -2.9530    -0.1890     0.4060 hc         1 JRZ       0.040033
     30 H7B         -3.6590    -1.5540     1.2820 hc         1 JRZ       0.040033
     31 H8          -2.6850    -2.1690     3.2790 ha         1 JRZ       0.131000
     32 H9          -0.7690    -2.1720     4.8300 ha         1 JRZ       0.134000
     33 H11          1.1090    -2.8160     5.4760 h1         1 JRZ       0.044200
     34 H11A         0.6050    -1.2400     6.1020 h1         1 JRZ       0.044200
     35 H12          3.4950    -2.1470     5.8490 h1         1 JRZ       0.057700
     36 H13          2.1790    -3.4350     7.5470 h1         1 JRZ       0.062700
     37 H14          1.8710    -1.4050     9.5230 hc         1 JRZ       0.043700
     38 H14A         0.6010    -2.3540     8.7390 hc         1 JRZ       0.043700
     39 H14B         1.1090    -0.8090     8.0420 hc         1 JRZ       0.043700
     40 H15          2.8440    -3.7470     9.8080 h1         1 JRZ       0.025700
     41 H16          3.4980    -5.2250     8.0750 hc         1 JRZ       0.039367
     42 H16A         5.1250    -4.5330     8.0020 hc         1 JRZ       0.039367
     43 H16B         4.6620    -5.5630     9.3640 hc         1 JRZ       0.039367
     44 H17          4.9680    -4.1290    11.1350 hc         1 JRZ       0.039367
     45 H17A         4.3680    -2.4650    11.1550 hc         1 JRZ       0.039367
     46 H17B         5.7460    -2.8960    10.1330 hc         1 JRZ       0.039367
     47 C15          3.8310    -3.5670     9.4000 c3         1 JRZ       0.158500
@<TRIPOS>BOND
     1     1     4 1
     2     1     8 1
     3     2    16 1
     4     2    47 1
     5     3    13 1
     6     3    14 1
     7     4     6 1
     8     5    15 1
     9     6     7 1
    10     7     8 ar
    11     7    13 ar
    12     8     9 ar
    13     9    10 1
    14     9    11 ar
    15    11    12 ar
    16    12    13 ar
    17    14    15 1
    18    15    16 1
    19    16    17 1
    20    47    18 1
    21    47    19 1
    22     1    20 1
    23     1    21 1
    24     2    22 1
    25     4    23 1
    26     4    24 1
    27     5    25 1
    28     6    26 1
    29     6    27 1
    30    10    28 1
    31    10    29 1
    32    10    30 1
    33    11    31 1
    34    12    32 1
    35    14    33 1
    36    14    34 1
    37    15    35 1
    38    16    36 1
    39    17    37 1
    40    17    38 1
    41    17    39 1
    42    47    40 1
    43    18    41 1
    44    18    42 1
    45    18    43 1
    46    19    44 1
    47    19    45 1
    48    19    46 1
@<TRIPOS>SUBSTRUCTURE
     1 JRZ         1 TEMP              0 ****  ****    0 ROOT
