@<TRIPOS>MOLECULE
JS2
   54    56     1     0     0
SMALL
bcc


@<TRIPOS>ATOM
      1 C2           0.0000     0.0000     0.0000 cc         1 JS2       0.273800
      2 C4           1.9990     0.0000     1.1460 cd         1 JS2      -0.167200
      3 C6          -0.0990    -0.0080     2.3470 c          1 JS2       0.526000
      4 O3'         11.7170    -2.5040   -10.3600 oh         1 JS2      -0.557800
      5 C3'         12.3870    -3.2170    -9.3200 c3         1 JS2       0.142100
      6 C2'         13.8810    -2.8120    -9.2590 c3         1 JS2       0.128100
      7 O2'         14.3010    -2.2300   -10.4940 oh         1 JS2      -0.548800
      8 C1'         13.8860    -1.7610    -8.1210 c3         1 JS2       0.367900
      9 O1'         13.4680    -0.4850    -8.6120 oh         1 JS2      -0.574800
     10 O4'         12.9250    -2.2820    -7.1760 os         1 JS2      -0.375600
     11 C4'         11.8300    -2.8110    -7.9410 c3         1 JS2       0.133100
     12 C5'         11.2460    -4.0370    -7.2350 c3         1 JS2       0.308400
     13 O5'         10.6290    -3.6320    -6.0110 os         1 JS2      -0.499200
     14 PBG          9.9110    -4.6660    -5.0070 p5         1 JS2       0.951800
     15 OAI         11.0070    -5.6790    -4.4060 o          1 JS2      -0.674500
     16 OAD          8.8810    -5.4330    -5.7440 o          1 JS2      -0.674500
     17 OAV          9.2160    -3.8510    -3.8060 os         1 JS2      -0.489800
     18 PBF          8.1220    -4.2270    -2.6850 p5         1 JS2       0.949800
     19 OAH          8.8350    -5.0280    -1.4860 o          1 JS2      -0.672000
     20 OAC          7.0700    -5.0760    -3.2890 o          1 JS2      -0.672000
     21 OAS          7.4570    -2.8770    -2.1100 os         1 JS2      -0.510200
     22 CAM          6.3760    -2.8790    -1.1760 c3         1 JS2       0.316400
     23 CAK          5.9890    -1.4380    -0.8400 c3         1 JS2      -0.054400
     24 CAL          4.8320    -1.4400     0.1590 c3         1 JS2      -0.043400
     25 N9           3.3360    -0.0000     1.4540 na         1 JS2       0.287100
     26 N3           1.3040     0.0000     0.0000 nd         1 JS2      -0.469100
     27 N1          -0.7220    -0.0020     1.1490 ns         1 JS2      -0.007400
     28 O6          -0.7380    -0.0100     3.3860 o          1 JS2      -0.692500
     29 C5           1.3170    -0.0020     2.3660 cc         1 JS2       0.215800
     30 N7           2.2500    -0.0030     3.3510 nc         1 JS2      -0.628000
     31 C8           3.4450    -0.0020     2.8160 cd         1 JS2       0.358400
     32 NAA          4.6330    -0.0030     3.5200 nv         1 JS2      -0.525500
     33 H1          -0.5240     0.0050    -0.9480 h5         1 JS2       0.002800
     34 H2          11.2730    -3.1150   -10.9250 ho         1 JS2       0.371000
     35 H3          12.2930    -4.2870    -9.4640 h1         1 JS2       0.009700
     36 H4          14.4970    -3.6640    -8.9960 h1         1 JS2       0.012700
     37 H5          15.0700    -2.6770   -10.8070 ho         1 JS2       0.359000
     38 H6          14.8670    -1.6990    -7.6670 h2         1 JS2      -0.005300
     39 H7          13.9010     0.1960    -8.1260 ho         1 JS2       0.373000
     40 H8          11.0670    -2.0520    -8.0640 h1         1 JS2       0.041700
     41 H9          10.5070    -4.5050    -7.8740 h1         1 JS2      -0.021300
     42 H10         12.0400    -4.7430    -7.0220 h1         1 JS2      -0.021300
     43 H13          5.5250    -3.3900    -1.6100 h1         1 JS2      -0.025300
     44 H14          6.6810    -3.3910    -0.2710 h1         1 JS2      -0.025300
     45 H15          5.6840    -0.9260    -1.7450 hc         1 JS2       0.009200
     46 H16          6.8400    -0.9280    -0.4060 hc         1 JS2       0.009200
     47 H17          3.9810    -1.9500    -0.2750 hc         1 JS2       0.022700
     48 H18          5.1370    -1.9520     1.0640 hc         1 JS2       0.022700
     49 H19          5.2960     0.5120     0.9280 h1         1 JS2       0.036700
     50 H20          4.1390     0.5130    -0.4100 h1         1 JS2       0.036700
     51 H22          5.5000     0.1250     3.0370 hn         1 JS2       0.276800
     52 H23          4.6220    -0.0760     4.5180 hn         1 JS2       0.276800
     53 H21         -1.7220    -0.0010     1.1080 hn         1 JS2       0.170500
     54 CAN          4.4450     0.0010     0.4950 c3         1 JS2      -0.055700
@<TRIPOS>BOND
     1     1    26 2   
     2     1    27 1   
     3     1    33 1   
     4     2    25 1   
     5     2    26 1   
     6     2    29 2   
     7     3    27 1   
     8     3    28 2   
     9     3    29 1   
    10     4     5 1   
    11     4    34 1   
    12     5     6 1   
    13     5    11 1   
    14     5    35 1   
    15     6     7 1   
    16     6     8 1   
    17     6    36 1   
    18     7    37 1   
    19     8     9 1   
    20     8    10 1   
    21     8    38 1   
    22     9    39 1   
    23    10    11 1   
    24    11    12 1   
    25    11    40 1   
    26    12    13 1   
    27    12    41 1   
    28    12    42 1   
    29    13    14 1   
    30    14    15 1   
    31    14    16 1   
    32    14    17 1   
    33    17    18 1   
    34    18    19 1   
    35    18    20 1   
    36    18    21 1   
    37    21    22 1   
    38    22    23 1   
    39    22    43 1   
    40    22    44 1   
    41    23    24 1   
    42    23    45 1   
    43    23    46 1   
    44    24    47 1   
    45    24    48 1   
    46    24    54 1   
    47    25    31 1   
    48    25    54 1   
    49    27    53 1   
    50    29    30 1   
    51    30    31 2   
    52    31    32 1   
    53    32    51 1   
    54    32    52 1   
    55    49    54 1   
    56    50    54 1   
@<TRIPOS>SUBSTRUCTURE
     1 JS2         1 TEMP              0 ****  ****    0 ROOT
