@<TRIPOS>MOLECULE
molecule
   54    56     1     0     0
SMALL
bcc


@<TRIPOS>ATOM
      1 C2           0.0000     0.0000     0.0000 cc         1 JS2       0.472800
      2 C4           1.9990     0.0000     1.1460 cd         1 JS2       0.059800
      3 C6          -0.0990    -0.0080     2.3470 c          1 JS2       0.621000
      4 O3'         11.7170    -2.5040   -10.3600 oh         1 JS2      -0.573800
      5 C3'         12.3870    -3.2170    -9.3200 c3         1 JS2       0.107100
      6 C2'         13.8810    -2.8120    -9.2590 c3         1 JS2       0.101100
      7 O2'         14.3010    -2.2300   -10.4940 oh         1 JS2      -0.569800
      8 C1'         13.8860    -1.7610    -8.1210 c3         1 JS2       0.310900
      9 O1'         13.4680    -0.4850    -8.6120 oh         1 JS2      -0.588800
     10 O4'         12.9250    -2.2820    -7.1760 os         1 JS2      -0.382600
     11 C4'         11.8300    -2.8110    -7.9410 c3         1 JS2       0.114100
     12 C5'         11.2460    -4.0370    -7.2350 c3         1 JS2       0.234400
     13 O5'         10.6290    -3.6320    -6.0110 os         1 JS2      -0.598200
     14 PBG          9.9110    -4.6660    -5.0070 p5         1 JS2       1.434800
     15 OAI         11.0070    -5.6790    -4.4060 o          1 JS2      -0.836000
     16 OAD          8.8810    -5.4330    -5.7440 o          1 JS2      -0.836000
     17 OAV          9.2160    -3.8510    -3.8060 os         1 JS2      -0.717800
     18 PBF          8.1220    -4.2270    -2.6850 p5         1 JS2       1.433800
     19 OAH          8.8350    -5.0280    -1.4860 o          1 JS2      -0.834500
     20 OAC          7.0700    -5.0760    -3.2890 o          1 JS2      -0.834500
     21 OAS          7.4570    -2.8770    -2.1100 os         1 JS2      -0.611200
     22 CAM          6.3760    -2.8790    -1.1760 c3         1 JS2       0.237400
     23 CAK          5.9890    -1.4380    -0.8400 c3         1 JS2      -0.093400
     24 CAL          4.8320    -1.4400     0.1590 c3         1 JS2      -0.104400
     25 N9           3.3360    -0.0000     1.4540 na         1 JS2      -0.194900
     26 N3           1.3040     0.0000     0.0000 nd         1 JS2      -0.613100
     27 N1          -0.7220    -0.0020     1.1490 ns         1 JS2      -0.470400
     28 O6          -0.7380    -0.0100     3.3860 o          1 JS2      -0.642500
     29 C5           1.3170    -0.0020     2.3660 cd         1 JS2       0.245800
     30 N7           2.2500    -0.0030     3.3510 nd         1 JS2      -0.714000
     31 C8           3.4450    -0.0020     2.8160 cc         1 JS2       0.710400
     32 NAA          4.6330    -0.0030     3.5200 nv         1 JS2      -1.008500
     33 H1          -0.5240     0.0050    -0.9480 h5         1 JS2       0.055800
     34 H2          11.2730    -3.1150   -10.9250 ho         1 JS2       0.388000
     35 H3          12.2930    -4.2870    -9.4640 h1         1 JS2       0.044700
     36 H4          14.4970    -3.6640    -8.9960 h1         1 JS2       0.050700
     37 H5          15.0700    -2.6770   -10.8070 ho         1 JS2       0.376000
     38 H6          14.8670    -1.6990    -7.6670 h2         1 JS2       0.048700
     39 H7          13.9010     0.1960    -8.1260 ho         1 JS2       0.390000
     40 H8          11.0670    -2.0520    -8.0640 h1         1 JS2       0.082700
     41 H9          10.5070    -4.5050    -7.8740 h1         1 JS2       0.030200
     42 H10         12.0400    -4.7430    -7.0220 h1         1 JS2       0.030200
     43 H13          5.5250    -3.3900    -1.6100 h1         1 JS2       0.025700
     44 H14          6.6810    -3.3910    -0.2710 h1         1 JS2       0.025700
     45 H15          5.6840    -0.9260    -1.7450 hc         1 JS2       0.041700
     46 H16          6.8400    -0.9280    -0.4060 hc         1 JS2       0.041700
     47 H17          3.9810    -1.9500    -0.2750 hc         1 JS2       0.055700
     48 H18          5.1370    -1.9520     1.0640 hc         1 JS2       0.055700
     49 H19          5.2960     0.5120     0.9280 h1         1 JS2       0.063200
     50 H20          4.1390     0.5130    -0.4100 h1         1 JS2       0.063200
     51 H22          5.5000     0.1250     3.0370 hn         1 JS2       0.451800
     52 H23          4.6220    -0.0760     4.5180 hn         1 JS2       0.451800
     53 H21         -1.7220    -0.0010     1.1080 hn         1 JS2       0.330500
     54 CAN          4.4450     0.0010     0.4950 c3         1 JS2       0.038300
@<TRIPOS>BOND
     1     9     8 1
     2     7     6 1
     3     8    10 1
     4     8     6 1
     5    10    11 1
     6     4     5 1
     7     6     5 1
     8     5    11 1
     9    11    12 1
    10    54    25 1
    11    54    24 1
    12    32    31 1
    13    25    31 1
    14    25     2 1
    15    31    30 2
    16    13    12 1
    17    13    14 1
    18    24    23 1
    19     2    26 1
    20     2    29 2
    21    16    14 1
    22    26     1 2
    23    30    29 1
    24    17    14 1
    25    17    18 1
    26    14    15 1
    27    29     3 1
    28    23    22 1
    29     1    27 1
    30    20    18 1
    31     3    27 1
    32     3    28 2
    33    18    21 1
    34    18    19 1
    35    22    21 1
    36     1    33 1
    37     4    34 1
    38     5    35 1
    39     6    36 1
    40     7    37 1
    41     8    38 1
    42     9    39 1
    43    11    40 1
    44    12    41 1
    45    12    42 1
    46    22    43 1
    47    22    44 1
    48    23    45 1
    49    23    46 1
    50    24    47 1
    51    24    48 1
    52    54    49 1
    53    54    50 1
    54    32    51 1
    55    32    52 1
    56    27    53 1
@<TRIPOS>SUBSTRUCTURE
     1 JS2         1 TEMP              0 ****  ****    0 ROOT
