@<TRIPOS>MOLECULE
molecule
   31    33     1     0     0
SMALL
bcc


@<TRIPOS>ATOM
      1 C1           0.0000     0.0000     0.0000 c          1 JS3       0.716700
      2 O8           1.2170     0.0000     0.0000 o          1 JS3      -0.585100
      3 N9          -0.6730     0.0000     1.1670 ns         1 JS3      -0.473100
      4 C10          0.0220    -0.1030     2.3760 ca         1 JS3       0.060600
      5 C11          1.2760     0.5070     2.5080 ca         1 JS3      -0.124000
      6 C12          1.9740     0.4230     3.6710 ca         1 JS3      -0.102000
      7 C13          1.4370    -0.2830     4.7610 ca         1 JS3      -0.046000
      8 C14          0.1680    -0.9030     4.6370 ca         1 JS3      -0.019000
      9 C15         -0.5350    -0.7980     3.4260 ca         1 JS3      -0.155000
     10 C16         -0.3650    -1.6090     5.7300 ca         1 JS3      -0.121000
     11 C17          0.3430    -1.6860     6.8900 ca         1 JS3      -0.121000
     12 C18          1.5900    -1.0760     7.0120 ca         1 JS3      -0.130000
     13 C19          2.1360    -0.3860     5.9750 ca         1 JS3      -0.110000
     14 C20         -0.7330     0.0070    -1.2690 cc         1 JS3      -0.239000
     15 S21         -2.4850     0.0150    -1.4560 ss         1 JS3      -0.155300
     16 C22         -2.3130     0.0180    -3.1570 cd         1 JS3       0.550400
     17 N23         -1.0590     0.0130    -3.4840 nc         1 JS3      -0.682000
     18 C24         -0.1840     0.0130    -2.5100 cc         1 JS3       0.468600
     19 Cl1         -3.6310     0.0270    -4.2860 cl         1 JS3      -0.093000
     20 C26          1.3040     0.0080    -2.7460 c3         1 JS3      -0.119400
     21 H1          -1.6700     0.0960     1.1700 hn         1 JS3       0.324500
     22 H2           1.6920     1.0580     1.6730 ha         1 JS3       0.164000
     23 H3           2.9420     0.9000     3.7570 ha         1 JS3       0.138000
     24 H4          -1.5590    -1.1460     3.3630 ha         1 JS3       0.132000
     25 H5          -1.3330    -2.0880     5.6500 ha         1 JS3       0.131000
     26 H6          -0.0700    -2.2300     7.7310 ha         1 JS3       0.128000
     27 H7           2.1320    -1.1530     7.9470 ha         1 JS3       0.129000
     28 H8           3.1070     0.0830     6.0850 ha         1 JS3       0.133000
     29 H9           1.7440    -0.8550    -2.2600 hc         1 JS3       0.066367
     30 H10          1.7380     0.9120    -2.3370 hc         1 JS3       0.066367
     31 H11          1.5010    -0.0390    -3.8100 hc         1 JS3       0.066367
@<TRIPOS>BOND
     1     2     1 2
     2    20    18 1
     3    18    17 1
     4    18    14 2
     5    17    16 2
     6     1    14 1
     7     1     3 1
     8    14    15 1
     9     5     6 ar
    10     5     4 ar
    11     6     7 ar
    12    16    15 1
    13    16    19 1
    14     3     4 1
    15     4     9 ar
    16     7    13 ar
    17     7     8 ar
    18    13    12 ar
    19     9     8 ar
    20     8    10 ar
    21    12    11 ar
    22    10    11 ar
    23     3    21 1
    24     5    22 1
    25     6    23 1
    26     9    24 1
    27    10    25 1
    28    11    26 1
    29    12    27 1
    30    13    28 1
    31    20    29 1
    32    20    30 1
    33    20    31 1
@<TRIPOS>SUBSTRUCTURE
     1 JS3         1 TEMP              0 ****  ****    0 ROOT
