@<TRIPOS>MOLECULE
JS3
   31    33     1     0     0
SMALL
bcc


@<TRIPOS>ATOM
      1 C1           0.0000     0.0000     0.0000 c          1 JS3       0.633700
      2 O8           1.2170     0.0000     0.0000 o          1 JS3      -0.631100
      3 N9          -0.6730     0.0000     1.1670 ns         1 JS3      -0.027100
      4 C10          0.0220    -0.1030     2.3760 ca         1 JS3      -0.086400
      5 C11          1.2760     0.5070     2.5080 ca         1 JS3      -0.105000
      6 C12          1.9740     0.4230     3.6710 ca         1 JS3      -0.070000
      7 C13          1.4370    -0.2830     4.7610 ca         1 JS3      -0.044000
      8 C14          0.1680    -0.9030     4.6370 ca         1 JS3      -0.019000
      9 C15         -0.5350    -0.7980     3.4260 ca         1 JS3      -0.123000
     10 C16         -0.3650    -1.6090     5.7300 ca         1 JS3      -0.094000
     11 C17          0.3430    -1.6860     6.8900 ca         1 JS3      -0.095000
     12 C18          1.5900    -1.0760     7.0120 ca         1 JS3      -0.104000
     13 C19          2.1360    -0.3860     5.9750 ca         1 JS3      -0.083000
     14 C20         -0.7330     0.0070    -1.2690 cc         1 JS3      -0.205000
     15 S21         -2.4850     0.0150    -1.4560 ss         1 JS3      -0.283300
     16 C22         -2.3130     0.0180    -3.1570 cc         1 JS3       0.456400
     17 N23         -1.0590     0.0130    -3.4840 nd         1 JS3      -0.552000
     18 C24         -0.1840     0.0130    -2.5100 cd         1 JS3       0.421600
     19 Cl1         -3.6310     0.0270    -4.2860 cl         1 JS3       0.008000
     20 C26          1.3040     0.0080    -2.7460 c3         1 JS3      -0.027400
     21 H1          -1.6700     0.0960     1.1700 hn         1 JS3       0.173500
     22 H2           1.6920     1.0580     1.6730 ha         1 JS3       0.144000
     23 H3           2.9420     0.9000     3.7570 ha         1 JS3       0.108000
     24 H4          -1.5590    -1.1460     3.3630 ha         1 JS3       0.109000
     25 H5          -1.3330    -2.0880     5.6500 ha         1 JS3       0.105000
     26 H6          -0.0700    -2.2300     7.7310 ha         1 JS3       0.100000
     27 H7           2.1320    -1.1530     7.9470 ha         1 JS3       0.101000
     28 H8           3.1070     0.0830     6.0850 ha         1 JS3       0.106000
     29 H9           1.7440    -0.8550    -2.2600 hc         1 JS3       0.027367
     30 H10          1.7380     0.9120    -2.3370 hc         1 JS3       0.027367
     31 H11          1.5010    -0.0390    -3.8100 hc         1 JS3       0.027367
@<TRIPOS>BOND
     1     1     2 2   
     2     1     3 1   
     3     1    14 1   
     4     3     4 1   
     5     3    21 1   
     6     4     5 ar  
     7     4     9 ar  
     8     5     6 ar  
     9     5    22 1   
    10     6     7 ar  
    11     6    23 1   
    12     7     8 ar  
    13     7    13 ar  
    14     8     9 ar  
    15     8    10 ar  
    16     9    24 1   
    17    10    11 ar  
    18    10    25 1   
    19    11    12 ar  
    20    11    26 1   
    21    12    13 ar  
    22    12    27 1   
    23    13    28 1   
    24    14    15 1   
    25    14    18 2   
    26    15    16 1   
    27    16    17 2   
    28    16    19 1   
    29    17    18 1   
    30    18    20 1   
    31    20    29 1   
    32    20    30 1   
    33    20    31 1   
@<TRIPOS>SUBSTRUCTURE
     1 JS3         1 TEMP              0 ****  ****    0 ROOT
