@<TRIPOS>MOLECULE
JS7
   40    41     1     0     0
SMALL
bcc


@<TRIPOS>ATOM
      1 N1           0.0000     0.0000     0.0000 nb         1 JS7      -0.752000
      2 C2           1.3170     0.0000     0.0000 ca         1 JS7       0.764900
      3 N3           2.0140     0.0000     1.1190 nb         1 JS7      -0.750000
      4 C4           1.4040     0.0010     2.3020 ca         1 JS7       0.632200
      5 C5           0.0110     0.0010     2.3440 ca         1 JS7      -0.774800
      6 C6          -0.6830     0.0010     1.1420 ca         1 JS7       0.775600
      7 N7           2.1430     0.0000     3.4750 nu         1 JS7      -0.492900
      8 C8           5.6790    -0.0020     4.7810 ca         1 JS7       0.021700
      9 C9           6.3700     1.1940     4.7530 ca         1 JS7      -0.103500
     10 C10          7.7510     1.1930     4.7050 ca         1 JS7       0.018000
     11 C11          8.4410    -0.0040     4.6850 ca         1 JS7      -0.232500
     12 C12          7.7490    -1.2010     4.7130 ca         1 JS7       0.018000
     13 C13          6.3690    -1.2000     4.7600 ca         1 JS7      -0.103500
     14 S14         10.2020    -0.0060     4.6220 sy         1 JS7       0.937200
     15 O15         10.5830    -1.2570     4.0680 o          1 JS7      -0.494800
     16 O16         10.5840     1.2420     4.0600 o          1 JS7      -0.494800
     17 N17         10.7480    -0.0000     6.1860 nz         1 JS7      -0.131500
     18 N18         -0.7090     0.0010     3.6370 no         1 JS7       1.071200
     19 O19         -1.0050     1.0560     4.1700 o          1 JS7      -0.437000
     20 O20         -1.0050    -1.0530     4.1690 o          1 JS7      -0.437000
     21 O21         -2.0390     0.0010     1.1310 os         1 JS7      -0.419100
     22 C22         -2.6780     0.0010    -0.1470 c3         1 JS7       0.264700
     23 C23          3.6060    -0.0010     3.4180 c3         1 JS7       0.176800
     24 C24          4.1730    -0.0010     4.8390 c3         1 JS7      -0.005100
     25 H2           1.8430    -0.0010    -0.9470 h5         1 JS7       0.003100
     26 HN7          1.6770     0.0230     4.3600 hn         1 JS7       0.303800
     27 H9           5.8290     2.1330     4.7690 ha         1 JS7       0.136000
     28 H10          8.2930     2.1310     4.6840 ha         1 JS7       0.127000
     29 H12          8.2900    -2.1390     4.6960 ha         1 JS7       0.127000
     30 H13          5.8270    -2.1370     4.7810 ha         1 JS7       0.136000
     31 HN17        10.4120    -0.8160     6.6590 hn         1 JS7       0.313467
     32 HN1A        10.4130     0.8190     6.6530 hn         1 JS7       0.313467
     33 H22         -2.3820     0.8850    -0.6990 h1         1 JS7       0.010367
     34 H22A        -2.3820    -0.8840    -0.6980 h1         1 JS7       0.010367
     35 H22B        -3.7530     0.0010    -0.0130 h1         1 JS7       0.010367
     36 H23          3.9460    -0.8860     2.8940 h1         1 JS7       0.032700
     37 H23A         3.9480     0.8830     2.8930 h1         1 JS7       0.032700
     38 H24          3.8310    -0.8850     5.3640 hc         1 JS7       0.038700
     39 H24A         3.8320     0.8840     5.3630 hc         1 JS7       0.038700
     40 H173        11.7490    -0.0120     6.1900 hn         1 JS7       0.313467
@<TRIPOS>BOND
     1     1     2 ar  
     2     1     6 ar  
     3     2     3 ar  
     4     2    25 1   
     5     3     4 ar  
     6     4     5 ar  
     7     4     7 1   
     8     5     6 ar  
     9     5    18 1   
    10     6    21 1   
    11     7    23 1   
    12     7    26 1   
    13     8     9 ar  
    14     8    13 ar  
    15     8    24 1   
    16     9    10 ar  
    17     9    27 1   
    18    10    11 ar  
    19    10    28 1   
    20    11    12 ar  
    21    11    14 1   
    22    12    13 ar  
    23    12    29 1   
    24    13    30 1   
    25    14    15 2   
    26    14    16 2   
    27    14    17 1   
    28    17    31 1   
    29    17    32 1   
    30    17    40 1   
    31    18    19 1   
    32    18    20 1   
    33    21    22 1   
    34    22    33 1   
    35    22    34 1   
    36    22    35 1   
    37    23    24 1   
    38    23    36 1   
    39    23    37 1   
    40    24    38 1   
    41    24    39 1   
@<TRIPOS>SUBSTRUCTURE
     1 JS7         1 TEMP              0 ****  ****    0 ROOT
