@<TRIPOS>MOLECULE
molecule
   40    41     1     0     0
SMALL
bcc


@<TRIPOS>ATOM
      1 N1           0.0000     0.0000     0.0000 nb         1 JS7      -0.837000
      2 C2           1.3170     0.0000     0.0000 ca         1 JS7       0.787900
      3 N3           2.0140     0.0000     1.1190 nb         1 JS7      -0.834000
      4 C4           1.4040     0.0010     2.3020 ca         1 JS7       0.791200
      5 C5           0.0110     0.0010     2.3440 ca         1 JS7      -0.482800
      6 C6          -0.6830     0.0010     1.1420 ca         1 JS7       0.772600
      7 N7           2.1430     0.0000     3.4750 nu         1 JS7      -0.904900
      8 C8           5.6790    -0.0020     4.7810 ca         1 JS7       0.022700
      9 C9           6.3700     1.1940     4.7530 ca         1 JS7      -0.127500
     10 C10          7.7510     1.1930     4.7050 ca         1 JS7      -0.023500
     11 C11          8.4410    -0.0040     4.6850 ca         1 JS7      -0.346500
     12 C12          7.7490    -1.2010     4.7130 ca         1 JS7      -0.023500
     13 C13          6.3690    -1.2000     4.7600 ca         1 JS7      -0.127500
     14 S14         10.2020    -0.0060     4.6220 sy         1 JS7       1.228200
     15 O15         10.5830    -1.2570     4.0680 o          1 JS7      -0.517300
     16 O16         10.5840     1.2420     4.0600 o          1 JS7      -0.517300
     17 N17         10.7480    -0.0000     6.1860 nz         1 JS7      -0.806500
     18 N18         -0.7090     0.0010     3.6370 no         1 JS7       0.304200
     19 O19         -1.0050     1.0560     4.1700 o          1 JS7      -0.187500
     20 O20         -1.0050    -1.0530     4.1690 o          1 JS7      -0.187500
     21 O21         -2.0390     0.0010     1.1310 os         1 JS7      -0.415100
     22 C22         -2.6780     0.0010    -0.1470 c3         1 JS7       0.134700
     23 C23          3.6060    -0.0010     3.4180 c3         1 JS7       0.250800
     24 C24          4.1730    -0.0010     4.8390 c3         1 JS7      -0.078100
     25 H2           1.8430    -0.0010    -0.9470 h5         1 JS7       0.074100
     26 HN7          1.6770     0.0230     4.3600 hn         1 JS7       0.463800
     27 H9           5.8290     2.1330     4.7690 ha         1 JS7       0.169000
     28 H10          8.2930     2.1310     4.6840 ha         1 JS7       0.158000
     29 H12          8.2900    -2.1390     4.6960 ha         1 JS7       0.158000
     30 H13          5.8270    -2.1370     4.7810 ha         1 JS7       0.169000
     31 HN17        10.4120    -0.8160     6.6590 hn         1 JS7       0.492133
     32 HN1A        10.4130     0.8190     6.6530 hn         1 JS7       0.492133
     33 H22         -2.3820     0.8850    -0.6990 h1         1 JS7       0.060367
     34 H22A        -2.3820    -0.8840    -0.6980 h1         1 JS7       0.060367
     35 H22B        -3.7530     0.0010    -0.0130 h1         1 JS7       0.060367
     36 H23          3.9460    -0.8860     2.8940 h1         1 JS7       0.062700
     37 H23A         3.9480     0.8830     2.8930 h1         1 JS7       0.062700
     38 H24          3.8310    -0.8850     5.3640 hc         1 JS7       0.075200
     39 H24A         3.8320     0.8840     5.3630 hc         1 JS7       0.075200
     40 H173        11.7490    -0.0120     6.1900 hn         1 JS7       0.492133
@<TRIPOS>BOND
     1     1     2 ar
     2     1     6 ar
     3     2     3 ar
     4     3     4 ar
     5     4     5 ar
     6     4     7 1
     7     5     6 ar
     8     5    18 1
     9     6    21 1
    10     7    23 1
    11     8     9 ar
    12     8    13 ar
    13     8    24 1
    14     9    10 ar
    15    10    11 ar
    16    11    12 ar
    17    11    14 1
    18    12    13 ar
    19    14    15 2
    20    14    16 2
    21    14    17 1
    22    18    19 1
    23    18    20 1
    24    21    22 1
    25    23    24 1
    26     2    25 1
    27     7    26 1
    28     9    27 1
    29    10    28 1
    30    12    29 1
    31    13    30 1
    32    17    31 1
    33    17    32 1
    34    22    33 1
    35    22    34 1
    36    22    35 1
    37    23    36 1
    38    23    37 1
    39    24    38 1
    40    24    39 1
    41    40    17 1
@<TRIPOS>SUBSTRUCTURE
     1 JS7         1 TEMP              0 ****  ****    0 ROOT
