@<TRIPOS>MOLECULE
molecule
   67    70     1     0     0
SMALL
bcc


@<TRIPOS>ATOM
      1 C1'          0.0000     0.0000     0.0000 c3         1 JSJ       0.244800
      2 C10         -9.4270     2.1000     4.7300 c3         1 JSJ       0.165400
      3 C11         -8.0900     2.6140     5.2120 c2         1 JSJ      -0.151200
      4 C12         -8.1790     2.9420     6.4770 c2         1 JSJ      -0.107400
      5 C13         -7.0540     3.4940     7.3130 c3         1 JSJ       0.030900
      6 C14         -9.5840     2.6780     6.9670 c3         1 JSJ       0.173400
      7 C15         -9.5480     1.9960     8.3360 c3         1 JSJ      -0.084100
      8 C16        -10.3700     3.9890     7.0490 c3         1 JSJ      -0.084100
      9 C2          -0.9780    -0.8200    -4.3030 ca         1 JSJ       0.717900
     10 C2'          1.5450     0.0000     0.0000 c3         1 JSJ       0.080100
     11 C3'          1.9200     0.0000     1.4990 c3         1 JSJ       0.089100
     12 C4          -0.7600     0.4160    -2.3780 ca         1 JSJ       0.467800
     13 C4'          0.5570    -0.0000     2.2270 c3         1 JSJ       0.122100
     14 C5          -1.2340     1.5480    -3.0640 ca         1 JSJ      -0.205200
     15 C5'          0.6270     0.8680     3.4860 c3         1 JSJ       0.240400
     16 C6          -1.5830     1.4040    -4.4180 ca         1 JSJ       0.777200
     17 C8          -0.8250     2.1540    -1.0230 cc         1 JSJ       0.459700
     18 N1          -1.4330     0.2130    -4.9890 nb         1 JSJ      -0.850000
     19 N10        -10.1900     1.7760     5.9590 n3         1 JSJ      -0.422100
     20 N3          -0.6490    -0.7360    -3.0320 nb         1 JSJ      -0.774000
     21 N6          -2.0560     2.4830    -5.1450 nv         1 JSJ      -0.995500
     22 N7          -1.2490     2.5730    -2.1790 nd         1 JSJ      -0.613100
     23 N9          -0.5110     0.8300    -1.0940 na         1 JSJ      -0.240000
     24 O1A         -0.6570     2.9920     5.3840 o          1 JSJ      -0.828000
     25 O1B         -2.7890     2.0910     8.5190 o          1 JSJ      -0.729500
     26 O2'          2.0450    -1.1750    -0.6420 oh         1 JSJ      -0.569800
     27 O2A          0.1150     0.9980     6.7230 o          1 JSJ      -0.828000
     28 O2B         -3.6140     3.4520     6.5600 o          1 JSJ      -0.729500
     29 O3'          2.6670    -1.1730     1.8280 oh         1 JSJ      -0.575800
     30 O3A         -2.4070     1.2970     6.0430 os         1 JSJ      -0.695800
     31 O4'         -0.3690     0.5680     1.2750 os         1 JSJ      -0.381600
     32 O5'         -0.6040     0.7620     4.2050 os         1 JSJ      -0.596200
     33 O6         -11.6130     2.0660     5.7840 oh         1 JSJ      -0.476300
     34 PA          -0.8840     1.5450     5.5840 p5         1 JSJ       1.428800
     35 PB          -3.4140     2.0650     7.0360 p5         1 JSJ       1.185800
     36 S1          -5.2770     1.0540     7.0710 ss         1 JSJ      -0.414400
     37 S2          -6.3890     2.1820     8.3740 ss         1 JSJ      -0.075100
     38 H1          -0.3750    -1.0130    -0.0820 h2         1 JSJ       0.106700
     39 H2          -7.4600     3.1920     4.5460 ha         1 JSJ       0.157000
     40 H3          -6.2700     3.8650     6.6650 h1         1 JSJ       0.091200
     41 H4          -7.4260     4.3030     7.9300 h1         1 JSJ       0.091200
     42 H5          -9.0980     2.6630     9.0600 hc         1 JSJ       0.040700
     43 H6         -10.5580     1.7550     8.6460 hc         1 JSJ       0.040700
     44 H7          -8.9640     1.0860     8.2710 hc         1 JSJ       0.040700
     45 H8         -11.4280     3.7830     6.9360 hc         1 JSJ       0.040700
     46 H9         -10.0450     4.6550     6.2600 hc         1 JSJ       0.040700
     47 H10        -10.1940     4.4550     8.0110 hc         1 JSJ       0.040700
     48 H11        -10.0750     4.1290     4.4440 hc         1 JSJ       0.037533
     49 H12        -11.1960     2.9120     3.8190 hc         1 JSJ       0.037533
     50 H13         -9.7000     3.2670     2.9460 hc         1 JSJ       0.037533
     51 H14         -8.8480     0.0430     4.4950 hc         1 JSJ       0.037533
     52 H15        -10.1880     0.5460     3.4540 hc         1 JSJ       0.037533
     53 H16         -8.5360     1.0540     3.0770 hc         1 JSJ       0.037533
     54 H17         -0.8710    -1.7730    -4.8070 h5         1 JSJ       0.050100
     55 H18          1.9220     0.8930    -0.4830 h1         1 JSJ       0.043700
     56 H19          2.4790     0.8940     1.7480 h1         1 JSJ       0.051700
     57 H20          0.2650    -1.0130     2.4760 h1         1 JSJ       0.086700
     58 H21          1.4420     0.5290     4.1130 h1         1 JSJ       0.038200
     59 H22          0.7930     1.9000     3.2040 h1         1 JSJ       0.038200
     60 H23         -0.7360     2.7670    -0.1350 h5         1 JSJ       0.108800
     61 H24         -2.2950     2.3690    -6.1110 hn         1 JSJ       0.443800
     62 H25         -2.1640     3.3750    -4.7050 hn         1 JSJ       0.443800
     63 H27          2.7820    -0.9480    -1.1840 ho         1 JSJ       0.394000
     64 H29          3.5270    -0.9250     2.1230 ho         1 JSJ       0.395000
     65 H30        -12.1150     1.2850     5.9470 ho         1 JSJ       0.400000
     66 C17        -10.1520     3.1810     3.9260 c3         1 JSJ      -0.083100
     67 C18         -9.2360     0.8440     3.8770 c3         1 JSJ      -0.083100
@<TRIPOS>BOND
     1    18     9 ar
     2    18    16 ar
     3    21    16 1
     4     9    20 ar
     5    16    14 ar
     6    20    12 ar
     7    14    12 ar
     8    14    22 1
     9    12    23 1
    10    22    17 2
    11    23    17 1
    12    23     1 1
    13     1    31 1
    14     1    10 1
    15    26    10 1
    16    31    13 1
    17    10    11 1
    18    29    11 1
    19    13    11 1
    20    13    15 1
    21    15    32 1
    22    32    34 1
    23    24    34 1
    24    34    27 1
    25    34    30 1
    26    30    35 1
    27    28    35 1
    28    67     2 1
    29    25    35 1
    30    35    36 1
    31     2    66 1
    32     2     3 1
    33     2    19 1
    34    36    37 1
    35     3     4 2
    36    37     5 1
    37    19    33 1
    38    19     6 1
    39     4     5 1
    40     4     6 1
    41     6     7 1
    42     6     8 1
    43     1    38 1
    44     3    39 1
    45     5    40 1
    46     5    41 1
    47     7    42 1
    48     7    43 1
    49     7    44 1
    50     8    45 1
    51     8    46 1
    52     8    47 1
    53    66    48 1
    54    66    49 1
    55    66    50 1
    56    67    51 1
    57    67    52 1
    58    67    53 1
    59     9    54 1
    60    10    55 1
    61    11    56 1
    62    13    57 1
    63    15    58 1
    64    15    59 1
    65    17    60 1
    66    21    61 1
    67    21    62 1
    68    26    63 1
    69    29    64 1
    70    33    65 1
@<TRIPOS>SUBSTRUCTURE
     1 JSJ         1 TEMP              0 ****  ****    0 ROOT
