@<TRIPOS>MOLECULE
molecule
   56    58     1     0     0
SMALL
bcc


@<TRIPOS>ATOM
      1 C1           0.0000     0.0000     0.0000 c3         1 JSR       0.137400
      2 O1           1.4290     0.0000     0.0000 os         1 JSR      -0.391600
      3 C2          -0.5100     0.0000    -1.4430 c3         1 JSR       0.160800
      4 N2          -0.1210    -1.2550    -2.1000 n7         1 JSR      -0.805200
      5 C3          -0.5940    -1.2890    -3.4900 c3         1 JSR       0.160800
      6 C4          -0.1700    -2.6090    -4.1400 c3         1 JSR      -0.037100
      7 N1'          3.7190     1.5910     1.9700 n7         1 JSR      -0.787200
      8 C11         -0.6560    -2.6440    -5.5660 ca         1 JSR      -0.057300
      9 C12          0.1440    -2.1540    -6.5810 ca         1 JSR      -0.163000
     10 C13         -0.3030    -2.1880    -7.8920 ca         1 JSR       0.134900
     11 F13          0.4790    -1.7090    -8.8840 f          1 JSR      -0.141900
     12 C14         -1.5500    -2.7130    -8.1840 ca         1 JSR      -0.171000
     13 C15         -2.3490    -3.2010    -7.1670 ca         1 JSR      -0.102000
     14 C16         -1.9000    -3.1720    -5.8600 ca         1 JSR      -0.144000
     15 N1A          5.2610    -2.7790     0.4360 nb         1 JSR      -0.746000
     16 C2'          2.2590     1.4430     1.7800 c3         1 JSR       0.116800
     17 C2A          4.6840    -2.7580     1.6230 ca         1 JSR       0.467600
     18 C3'          2.0090     0.0000     1.3060 c3         1 JSR       0.132100
     19 C3A          5.2970    -3.3300     2.7190 ca         1 JSR      -0.299300
     20 C4'          3.4060    -0.6620     1.2720 c3         1 JSR      -0.061700
     21 C4A          6.5390    -3.9330     2.5660 ca         1 JSR      -0.017300
     22 C5'          4.2330     0.2240     2.2380 c3         1 JSR       0.140800
     23 C5A          7.1200    -3.9390     1.3110 ca         1 JSR      -0.309300
     24 C6A          6.4440    -3.3440     0.2500 ca         1 JSR       0.702200
     25 N6A          7.0160    -3.3420    -1.0170 nv         1 JSR      -1.034500
     26 C7A          3.3360    -2.1030     1.7830 c3         1 JSR      -0.120700
     27 C8A          7.2380    -4.5660     3.7410 c3         1 JSR      -0.049800
     28 H1          -0.3610     0.8850     0.5110 h1         1 JSR       0.020700
     29 H1A         -0.3610    -0.8840     0.5110 h1         1 JSR       0.020700
     30 H2          -1.5900     0.0890    -1.4440 h1         1 JSR       0.042200
     31 H2A         -0.0780     0.8370    -1.9780 h1         1 JSR       0.042200
     32 HN2         -0.5070    -2.0290    -1.5970 hn         1 JSR       0.348800
     33 H3          -1.6740    -1.2090    -3.5070 h1         1 JSR       0.035700
     34 H3A         -0.1620    -0.4610    -4.0400 h1         1 JSR       0.035700
     35 H4           0.9100    -2.6890    -4.1240 hc         1 JSR       0.059200
     36 H4A         -0.6020    -3.4370    -3.5910 hc         1 JSR       0.059200
     37 HN1'         3.8950     2.1750     2.7640 hn         1 JSR       0.343800
     38 H12          1.1320    -1.7700    -6.3550 ha         1 JSR       0.150000
     39 H14         -1.9010    -2.7370    -9.2080 ha         1 JSR       0.144000
     40 H15         -3.3240    -3.6140    -7.3960 ha         1 JSR       0.135000
     41 H16         -2.5270    -3.5560    -5.0640 ha         1 JSR       0.133000
     42 H2'          1.9130     2.1430     1.0290 h1         1 JSR       0.043700
     43 H2'A         1.7460     1.6160     2.7190 h1         1 JSR       0.043700
     44 H3'          1.3680    -0.5180     2.0080 h1         1 JSR       0.033700
     45 H3AA         4.8150    -3.3080     3.6890 ha         1 JSR       0.134000
     46 H4'          3.8210    -0.6230     0.2720 hc         1 JSR       0.112700
     47 H5'          5.2880     0.1600     2.0040 h1         1 JSR       0.042200
     48 H5'A         4.0450    -0.0580     3.2670 h1         1 JSR       0.042200
     49 H5A          8.0880    -4.4000     1.1550 ha         1 JSR       0.137000
     50 HN6A         8.0020    -3.2030    -1.1200 hn         1 JSR       0.438300
     51 HN6B         6.4370    -3.4430    -1.8270 hn         1 JSR       0.438300
     52 H7A          3.0570    -2.1020     2.8290 hc         1 JSR       0.056200
     53 H7AA         2.5970    -2.6520     1.2120 hc         1 JSR       0.056200
     54 H8A          6.5270    -4.7180     4.5440 hc         1 JSR       0.046367
     55 H8AA         7.6550    -5.5200     3.4420 hc         1 JSR       0.046367
     56 H8AB         8.0330    -3.9140     4.0810 hc         1 JSR       0.046367
@<TRIPOS>BOND
     1     2     1 1
     2     3     1 1
     3     1    28 1
     4     1    29 1
     5     2    18 1
     6     3     4 1
     7     3    30 1
     8     3    31 1
     9     4     5 1
    10     4    32 1
    11     5     6 1
    12     5    33 1
    13     5    34 1
    14     6     8 1
    15     6    35 1
    16     6    36 1
    17    22     7 1
    18    16     7 1
    19     7    37 1
    20     8     9 ar
    21     8    14 ar
    22     9    10 ar
    23     9    38 1
    24    10    11 1
    25    10    12 ar
    26    13    12 ar
    27    12    39 1
    28    14    13 ar
    29    13    40 1
    30    14    41 1
    31    24    15 ar
    32    17    15 ar
    33    18    16 1
    34    16    42 1
    35    16    43 1
    36    19    17 ar
    37    17    26 1
    38    20    18 1
    39    18    44 1
    40    21    19 ar
    41    19    45 1
    42    26    20 1
    43    20    22 1
    44    20    46 1
    45    27    21 1
    46    21    23 ar
    47    22    47 1
    48    22    48 1
    49    23    24 ar
    50    23    49 1
    51    24    25 1
    52    25    50 1
    53    25    51 1
    54    26    52 1
    55    26    53 1
    56    27    54 1
    57    27    55 1
    58    27    56 1
@<TRIPOS>SUBSTRUCTURE
     1 JSR         1 TEMP              0 ****  ****    0 ROOT
