@<TRIPOS>MOLECULE
JSS
   56    58     1     0     0
SMALL
bcc


@<TRIPOS>ATOM
      1 C1           0.0000     0.0000     0.0000 c3         1 JSS       0.209400
      2 O1           1.4300     0.0000     0.0000 os         1 JSS      -0.390600
      3 C2          -0.5100    -0.0000    -1.4410 c3         1 JSS       0.138800
      4 N2          -0.1230    -1.2560    -2.0980 n7         1 JSS      -0.576200
      5 C3          -0.5980    -1.2920    -3.4880 c3         1 JSS       0.144800
      6 C4          -0.1750    -2.6110    -4.1370 c3         1 JSS       0.027900
      7 N1'          3.5470     1.3790     2.5240 n7         1 JSS      -0.587200
      8 C11         -0.6630    -2.6480    -5.5630 ca         1 JSS      -0.063300
      9 C12          0.1370    -2.1600    -6.5780 ca         1 JSS      -0.129000
     10 C13         -0.3100    -2.1930    -7.8890 ca         1 JSS       0.106900
     11 F13          0.4710    -1.7160    -8.8820 f          1 JSS      -0.128900
     12 C14         -1.5580    -2.7170    -8.1790 ca         1 JSS      -0.138000
     13 C15         -2.3560    -3.2050    -7.1610 ca         1 JSS      -0.072000
     14 C16         -1.9060    -3.1750    -5.8540 ca         1 JSS      -0.114000
     15 N1A          6.1250    -1.2910     0.3630 nb         1 JSS      -0.657000
     16 C2'          2.2640     1.4480     1.7800 c3         1 JSS       0.108800
     17 C2A          5.0490    -1.8650    -0.1410 ca         1 JSS       0.431600
     18 C3'          2.0110     0.0000     1.3050 c3         1 JSS       0.171100
     19 C3A          5.1060    -3.1430    -0.6600 ca         1 JSS      -0.285300
     20 C4'          3.4050    -0.6590     1.2700 c3         1 JSS      -0.042700
     21 C4A          6.3140    -3.8280    -0.6490 ca         1 JSS      -0.007300
     22 C5'          4.3830     0.4450     1.7260 c3         1 JSS       0.142800
     23 C5A          7.4250    -3.2000    -0.1140 ca         1 JSS      -0.310300
     24 C6A          7.2940    -1.9110     0.3910 ca         1 JSS       0.514200
     25 N6A          8.4020    -1.2680     0.9320 nv         1 JSS      -0.544500
     26 C7A          3.7410    -1.1160    -0.1510 c3         1 JSS      -0.069700
     27 C8A          6.4120    -5.2250    -1.2060 c3         1 JSS       0.060200
     28 H1          -0.3610     0.8840     0.5110 h1         1 JSS      -0.008300
     29 H1A         -0.3610    -0.8840     0.5110 h1         1 JSS      -0.008300
     30 H2          -1.5900     0.0900    -1.4420 h1         1 JSS       0.013700
     31 H2A         -0.0780     0.8360    -1.9770 h1         1 JSS       0.013700
     32 HN2         -0.5090    -2.0290    -1.5930 hn         1 JSS       0.249800
     33 H3          -1.6780    -1.2110    -3.5020 h1         1 JSS       0.009700
     34 H3A         -0.1670    -0.4640    -4.0380 h1         1 JSS       0.009700
     35 H4           0.9050    -2.6910    -4.1230 hc         1 JSS       0.025200
     36 H4A         -0.6060    -3.4390    -3.5870 hc         1 JSS       0.025200
     37 HN1'         3.9750     2.2830     2.5360 hn         1 JSS       0.251800
     38 H12          1.1300    -1.7890    -6.3550 ha         1 JSS       0.125000
     39 H14         -1.9110    -2.7420    -9.2030 ha         1 JSS       0.118000
     40 H15         -3.3320    -3.6170    -7.3880 ha         1 JSS       0.106000
     41 H16         -2.5320    -3.5580    -5.0570 ha         1 JSS       0.108000
     42 H2'          1.4650     1.7740     2.4350 h1         1 JSS       0.015700
     43 H2'A         2.3580     2.1110     0.9280 h1         1 JSS       0.015700
     44 H3'          1.3700    -0.5180     2.0090 h1         1 JSS       0.015700
     45 H3AA         4.2180    -3.6060    -1.0720 ha         1 JSS       0.121000
     46 H4'          3.4400    -1.4960     1.9570 hc         1 JSS       0.036700
     47 H5'          5.1680     0.0220     2.3410 h1         1 JSS       0.026200
     48 H5'A         4.8010     0.9550     0.8670 h1         1 JSS       0.026200
     49 H5A          8.3830    -3.7060    -0.0900 ha         1 JSS       0.118000
     50 HN6A         9.2230    -1.7940     1.1600 hn         1 JSS       0.268800
     51 HN6B         8.3920    -0.2760     1.0600 hn         1 JSS       0.268800
     52 H7A          3.8250    -0.2510    -0.7980 hc         1 JSS       0.039200
     53 H7AA         2.9560    -1.7660    -0.5170 hc         1 JSS       0.039200
     54 H8A          6.3750    -5.1850    -2.2880 hc         1 JSS       0.009033
     55 H8AA         5.5850    -5.8190    -0.8380 hc         1 JSS       0.009033
     56 H8AB         7.3470    -5.6740    -0.8940 hc         1 JSS       0.009033
@<TRIPOS>BOND
     1     1     2 1   
     2     1     3 1   
     3     1    28 1   
     4     1    29 1   
     5     2    18 1   
     6     3     4 1   
     7     3    30 1   
     8     3    31 1   
     9     4     5 1   
    10     4    32 1   
    11     5     6 1   
    12     5    33 1   
    13     5    34 1   
    14     6     8 1   
    15     6    35 1   
    16     6    36 1   
    17     7    16 1   
    18     7    22 1   
    19     7    37 1   
    20     8     9 ar  
    21     8    14 ar  
    22     9    10 ar  
    23     9    38 1   
    24    10    11 1   
    25    10    12 ar  
    26    12    13 ar  
    27    12    39 1   
    28    13    14 ar  
    29    13    40 1   
    30    14    41 1   
    31    15    17 ar  
    32    15    24 ar  
    33    16    18 1   
    34    16    42 1   
    35    16    43 1   
    36    17    19 ar  
    37    17    26 1   
    38    18    20 1   
    39    18    44 1   
    40    19    21 ar  
    41    19    45 1   
    42    20    22 1   
    43    20    26 1   
    44    20    46 1   
    45    21    23 ar  
    46    21    27 1   
    47    22    47 1   
    48    22    48 1   
    49    23    24 ar  
    50    23    49 1   
    51    24    25 1   
    52    25    50 1   
    53    25    51 1   
    54    26    52 1   
    55    26    53 1   
    56    27    54 1   
    57    27    55 1   
    58    27    56 1   
@<TRIPOS>SUBSTRUCTURE
     1 JSS         1 TEMP              0 ****  ****    0 ROOT
