@<TRIPOS>MOLECULE
JST
   32    33     1     0     0
SMALL
bcc


@<TRIPOS>ATOM
      1 S1           0.0000     0.0000     0.0000 ss         1 JST      -0.326300
      2 N1           1.8230     0.7310     2.3770 n2         1 JST      -0.438400
      3 N2           0.7360     1.4930     2.1090 nu         1 JST      -0.130300
      4 C1           4.4530    -1.0900     0.7450 ca         1 JST      -0.069500
      5 C2           5.5630    -1.8830     1.0340 ca         1 JST      -0.100000
      6 C3           5.7190    -2.4290     2.3080 ca         1 JST      -0.033600
      7 C4           4.7620    -2.1830     3.2930 ca         1 JST      -0.100000
      8 C5           3.6520    -1.3900     3.0050 ca         1 JST      -0.069500
      9 C6           3.5030    -0.8480     1.7320 ca         1 JST      -0.125900
     10 C7           2.3160     0.0000     1.4230 ce         1 JST       0.352900
     11 C8           1.8010     0.0000     0.0000 c3         1 JST       0.018400
     12 C9          -0.2200     1.3140     1.1400 c2         1 JST       0.447100
     13 C11         -3.3750     2.5570    -0.1540 c3         1 JST       0.025800
     14 C12         -4.1940     2.4920     1.1040 c2         1 JST      -0.146200
     15 C13         -4.4330     3.5430     1.8950 c2         1 JST      -0.157000
     16 HN2          0.6130     2.2940     2.6960 hn         1 JST       0.310800
     17 H1           4.3310    -0.6650    -0.2430 ha         1 JST       0.116000
     18 H2           6.3060    -2.0740     0.2690 ha         1 JST       0.117000
     19 H4           4.8830    -2.6070     4.2830 ha         1 JST       0.117000
     20 H5           2.9080    -1.1970     3.7680 ha         1 JST       0.116000
     21 H82          2.1590    -0.8860    -0.5110 h1         1 JST       0.066700
     22 H81          2.1590     0.8860    -0.5110 h1         1 JST       0.066700
     23 H101        -2.4850     0.6170     0.0470 h1         1 JST       0.030200
     24 H102        -1.6110     1.7130    -1.0310 h1         1 JST       0.030200
     25 H111        -3.0400     3.5770    -0.3020 hc         1 JST       0.018200
     26 H112        -3.9970     2.2670    -0.9930 hc         1 JST       0.018200
     27 H12         -4.6130     1.5320     1.3810 ha         1 JST       0.090000
     28 H131        -4.0270     4.5150     1.6420 ha         1 JST       0.083500
     29 H132        -5.0340     3.4230     2.7890 ha         1 JST       0.083500
     30 N3          -1.2870     2.0360     1.0100 n2         1 JST      -0.538900
     31 Cl1          7.0890    -3.4070     2.6650 cl         1 JST      -0.015400
     32 C10         -2.1580     1.6400    -0.0990 c3         1 JST       0.144800
@<TRIPOS>BOND
     1     1    11 1   
     2     1    12 1   
     3     2     3 1   
     4     2    10 2   
     5     3    12 1   
     6     3    16 1   
     7     4     5 ar  
     8     4     9 ar  
     9     4    17 1   
    10     5     6 ar  
    11     5    18 1   
    12     6     7 ar  
    13     6    31 1   
    14     7     8 ar  
    15     7    19 1   
    16     8     9 ar  
    17     8    20 1   
    18     9    10 1   
    19    10    11 1   
    20    11    21 1   
    21    11    22 1   
    22    12    30 2   
    23    13    14 1   
    24    13    25 1   
    25    13    26 1   
    26    13    32 1   
    27    14    15 2   
    28    14    27 1   
    29    15    28 1   
    30    15    29 1   
    31    23    32 1   
    32    24    32 1   
    33    30    32 1   
@<TRIPOS>SUBSTRUCTURE
     1 JST         1 TEMP              0 ****  ****    0 ROOT
