@<TRIPOS>MOLECULE
molecule
   32    33     1     0     0
SMALL
bcc


@<TRIPOS>ATOM
      1 S1           0.0000     0.0000     0.0000 ss         1 JST      -0.283300
      2 N1           1.8230     0.7310     2.3770 n2         1 JST      -0.348400
      3 N2           0.7360     1.4930     2.1090 nu         1 JST      -0.549300
      4 C1           4.4530    -1.0900     0.7450 ca         1 JST      -0.096000
      5 C2           5.5630    -1.8830     1.0340 ca         1 JST      -0.123500
      6 C3           5.7190    -2.4290     2.3080 ca         1 JST       0.031400
      7 C4           4.7620    -2.1830     3.2930 ca         1 JST      -0.123500
      8 C5           3.6520    -1.3900     3.0050 ca         1 JST      -0.096000
      9 C6           3.5030    -0.8480     1.7320 ca         1 JST      -0.117900
     10 C7           2.3160     0.0000     1.4230 ce         1 JST       0.361900
     11 C8           1.8010     0.0000     0.0000 c3         1 JST      -0.070600
     12 C9          -0.2200     1.3140     1.1400 c2         1 JST       0.625100
     13 C11         -3.3750     2.5570    -0.1540 c3         1 JST      -0.031200
     14 C12         -4.1940     2.4920     1.1040 c2         1 JST      -0.164200
     15 C13         -4.4330     3.5430     1.8950 c2         1 JST      -0.214000
     16 HN2          0.6130     2.2940     2.6960 hn         1 JST       0.480800
     17 H1           4.3310    -0.6650    -0.2430 ha         1 JST       0.147500
     18 H2           6.3060    -2.0740     0.2690 ha         1 JST       0.149000
     19 H4           4.8830    -2.6070     4.2830 ha         1 JST       0.149000
     20 H5           2.9080    -1.1970     3.7680 ha         1 JST       0.147500
     21 H82          2.1590     0.8860    -0.5110 h1         1 JST       0.092700
     22 H81          2.1590    -0.8860    -0.5110 h1         1 JST       0.092700
     23 H101        -2.4850     0.6170     0.0470 h1         1 JST       0.053200
     24 H102        -1.6110     1.7130    -1.0310 h1         1 JST       0.053200
     25 H111        -3.9970     2.2670    -0.9930 hc         1 JST       0.050200
     26 H112        -3.0400     3.5770    -0.3020 hc         1 JST       0.050200
     27 H12         -4.6130     1.5320     1.3810 ha         1 JST       0.113000
     28 H131        -5.0340     3.4230     2.7890 ha         1 JST       0.112000
     29 H132        -4.0270     4.5150     1.6420 ha         1 JST       0.112000
     30 N3          -1.2870     2.0360     1.0100 n2         1 JST      -0.624900
     31 Cl1          7.0890    -3.4070     2.6650 cl         1 JST      -0.094400
     32 C10         -2.1580     1.6400    -0.0990 c3         1 JST       0.120800
@<TRIPOS>BOND
     1     1    11 1
     2     1    12 1
     3    31     6 1
     4     2     3 1
     5     2    10 2
     6     3    12 1
     7     3    16 1
     8    30    12 2
     9    30    32 1
    10     4     5 ar
    11     4     9 ar
    12     4    17 1
    13     5     6 ar
    14     5    18 1
    15     6     7 ar
    16     7     8 ar
    17     7    19 1
    18     8     9 ar
    19     8    20 1
    20     9    10 1
    21    10    11 1
    22    11    21 1
    23    11    22 1
    24    32    13 1
    25    32    23 1
    26    32    24 1
    27    13    14 1
    28    13    25 1
    29    13    26 1
    30    14    15 2
    31    14    27 1
    32    15    28 1
    33    15    29 1
@<TRIPOS>SUBSTRUCTURE
     1 JST         1 TEMP              0 ****  ****    0 ROOT
