@<TRIPOS>MOLECULE
molecule
   25    26     1     0     0
SMALL
bcc


@<TRIPOS>ATOM
      1 C            0.0000     0.0000     0.0000 ca         1 JSX       0.072100
      2 O           -0.6780     0.0060    -1.1780 oh         1 JSX      -0.531100
      3 C1           1.3880     0.0000     0.0000 ca         1 JSX      -0.153500
      4 C10          2.1270     0.0020     6.0960 ca         1 JSX      -0.105600
      5 C11          1.3950     0.0030     7.3800 c          1 JSX       0.882200
      6 C12          1.4240     0.0010     4.8910 ca         1 JSX      -0.087000
      7 C2           2.0790     0.0000     1.1940 ca         1 JSX      -0.120500
      8 C3          -0.6970     0.0010     1.2000 ca         1 JSX      -0.153500
      9 C4          -0.0120    -0.0050     2.3970 ca         1 JSX      -0.120500
     10 C5           1.3810     0.0010     2.4010 cp         1 JSX      -0.004000
     11 C6           2.1210     0.0010     3.6870 cp         1 JSX      -0.089000
     12 C7           3.5160     0.0010     3.6910 ca         1 JSX      -0.137000
     13 C8           4.2070     0.0010     4.8870 ca         1 JSX      -0.166000
     14 C9           3.5230     0.0060     6.0850 ca         1 JSX      -0.083000
     15 O1           0.1800     0.0020     7.3870 o          1 JSX      -0.836300
     16 O2           2.0760     0.0030     8.5420 o          1 JSX      -0.836300
     17 H           -0.8360    -0.8820    -1.4540 ho         1 JSX       0.406000
     18 H1           1.9300    -0.0010    -0.9380 ha         1 JSX       0.128000
     19 H8           0.3460     0.1050     4.8930 ha         1 JSX       0.148000
     20 H2           3.1620     0.0020     1.1940 ha         1 JSX       0.144000
     21 H3          -1.7810    -0.0040     1.1970 ha         1 JSX       0.128000
     22 H4          -0.5570    -0.0040     3.3330 ha         1 JSX       0.144000
     23 H5           4.0590    -0.0010     2.7530 ha         1 JSX       0.105000
     24 H6           5.2900     0.0020     4.8840 ha         1 JSX       0.107000
     25 H7           4.0710     0.0060     7.0200 ha         1 JSX       0.155000
@<TRIPOS>BOND
     1     2     1 1
     2     3     1 ar
     3     3     7 ar
     4     1     8 ar
     5     7    10 ar
     6     8     9 ar
     7    10     9 ar
     8    10    11 1
     9    12    11 ar
    10    12    13 ar
    11    11     6 ar
    12    13    14 ar
    13     6     4 ar
    14    14     4 ar
    15     4     5 1
    16     5    15 1
    17     5    16 1
    18     2    17 1
    19     3    18 1
    20     6    19 1
    21     7    20 1
    22     8    21 1
    23     9    22 1
    24    12    23 1
    25    13    24 1
    26    14    25 1
@<TRIPOS>SUBSTRUCTURE
     1 JSX         1 TEMP              0 ****  ****    0 ROOT
