@<TRIPOS>MOLECULE
JSZ
   50    50     1     0     0
SMALL
bcc


@<TRIPOS>ATOM
      1 C1          0.8550    0.3420   -0.7370 c2        1 JSZ      0.369000
      2 N1          1.0250    0.3290  -10.3480 n3        1 JSZ     -0.381000
      3 O1          1.7730    1.1390   -0.5430 o         1 JSZ     -0.307000
      4 C2          1.3380   -0.6000    1.3940 c3        1 JSZ     -0.010000
      5 O2          0.5360   -0.5990    0.1850 os        1 JSZ     -0.249000
      6 C3          0.7900   -1.7170    2.2450 c3        1 JSZ     -0.224000
      7 O3         -0.9610   -0.7520   -1.9690 os        1 JSZ     -0.048000
      8 C4          0.0120    0.2990   -1.9360 c2        1 JSZ     -0.028000
      9 C5         -0.0060    1.0670   -3.0630 c2        1 JSZ     -0.030000
     10 O5          1.9530    1.7340   -7.2510 oh        1 JSZ     -0.323000
     11 C6          0.8530    2.1920   -3.4230 c3        1 JSZ     -0.202000
     12 C7         -1.1760    0.5930   -3.9000 c3        1 JSZ     -0.138000
     13 C8         -1.5580   -0.6880   -3.1950 c2        1 JSZ      0.174000
     14 C9         -2.3090   -1.6790   -3.7830 c2        1 JSZ     -0.241000
     15 C10        -2.4810   -1.6030   -5.1780 c2        1 JSZ      0.129000
     16 C11        -1.8730   -0.6160   -5.9580 c2        1 JSZ     -0.332000
     17 C12        -1.1400    0.4240   -5.3780 c2        1 JSZ      0.264000
     18 C13        -0.3800    1.3330   -7.4680 c3        1 JSZ     -0.053000
     19 C14         0.7700    2.2950   -7.7980 c3        1 JSZ     -0.042000
     20 C15         0.8850    2.6360   -9.2160 c1        1 JSZ     -0.018000
     21 C16         1.4380   -1.0360  -10.0360 c3        1 JSZ     -0.040000
     22 C17         2.4320   -1.0770   -8.8760 c3        1 JSZ     -0.214000
     23 C18         0.2450   -1.9350   -9.7140 c3        1 JSZ     -0.214000
     24 HN1         1.8280    0.8790  -10.5950 hn        1 JSZ      0.163500
     25 H2          2.4080   -0.7680    1.1050 h1        1 JSZ      0.104000
     26 H2A         1.2350    0.4020    1.8850 h1        1 JSZ      0.104000
     27 H3          0.8760   -2.6960    1.7160 hc        1 JSZ      0.098333
     28 H3A        -0.2860   -1.5390    2.4860 hc        1 JSZ      0.098333
     29 H3B         1.3750   -1.7620    3.1950 hc        1 JSZ      0.098333
     30 HO5         2.5760    1.5890   -7.9790 ho        1 JSZ      0.240000
     31 H6          1.2520    2.0590   -4.4640 hc        1 JSZ      0.132667
     32 H6A         1.7140    2.2750   -2.7080 hc        1 JSZ      0.132667
     33 H6B         0.2740    3.1520   -3.3900 hc        1 JSZ      0.132667
     34 H9         -2.0190    1.3520   -3.7180 hc        1 JSZ      0.228000
     35 H10        -2.6870   -2.5380   -3.2060 ha        1 JSZ      0.207000
     36 H11        -3.0630   -2.4000   -5.6820 ha        1 JSZ      0.186000
     37 H13        -1.9480   -0.6840   -7.0580 ha        1 JSZ      0.186000
     38 H13A       -1.3540    1.6780   -7.8970 h1        1 JSZ      0.128000
     39 H14        -0.1230    0.2900   -7.7880 h1        1 JSZ      0.128000
     40 H15         0.6110    3.2800   -7.2470 h1        1 JSZ      0.154000
     41 H15A       -0.0530    2.8190   -9.7580 ha        1 JSZ      0.066000
     42 H16         1.9600   -1.4990  -10.9330 h1        1 JSZ      0.076000
     43 H17         2.7390   -2.1350   -8.6950 hc        1 JSZ      0.079167
     44 H17A        3.3450   -0.4800   -9.1130 hc        1 JSZ      0.079167
     45 H17B        1.9770   -0.6690   -7.9410 hc        1 JSZ      0.079167
     46 H18        -0.2930   -1.5830   -8.8010 hc        1 JSZ      0.079167
     47 H18A       -0.4770   -1.9620  -10.5640 hc        1 JSZ      0.079167
     48 H18B        0.6130   -2.9730   -9.5280 hc        1 JSZ      0.079167
     49 O4         -0.4870    1.3910   -6.0180 os        1 JSZ     -0.141000
     50 H12         0.3840    0.3240  -11.1170 hn        1 JSZ      0.163500
@<TRIPOS>BOND
     1    1    3 1
     2    1    5 1
     3    1    8 1
     4    2   21 1
     5    2   24 1
     6    2   50 1
     7    4    5 1
     8    4    6 1
     9    4   25 1
    10    4   26 1
    11    6   27 1
    12    6   28 1
    13    6   29 1
    14    7    8 1
    15    7   13 1
    16    8    9 1
    17    9   11 1
    18    9   12 1
    19   10   19 1
    20   10   30 1
    21   11   31 1
    22   11   32 1
    23   11   33 1
    24   12   13 1
    25   12   17 1
    26   12   34 1
    27   13   14 1
    28   14   15 1
    29   14   35 1
    30   15   16 1
    31   15   36 1
    32   16   17 1
    33   16   37 1
    34   17   49 1
    35   18   19 1
    36   18   38 1
    37   18   39 1
    38   18   49 1
    39   19   20 1
    40   19   40 1
    41   20   41 1
    42   21   22 1
    43   21   23 1
    44   21   42 1
    45   22   43 1
    46   22   44 1
    47   22   45 1
    48   23   46 1
    49   23   47 1
    50   23   48 1
@<TRIPOS>SUBSTRUCTURE
     1 JSZ         1 TEMP              0 ****  ****    0 ROOT
