@<TRIPOS>MOLECULE
JT1
   70    75     1     0     0
SMALL
bcc


@<TRIPOS>ATOM
      1 N1           0.0000     0.0000     0.0000 nh         1 JT1      -0.380600
      2 N2           1.3520    -1.1260     2.1600 n3         1 JT1      -0.527500
      3 S3           2.2730    -2.2020     3.0190 sy         1 JT1       1.060200
      4 C4           2.5000    -3.6220     2.0000 ca         1 JT1      -0.132500
      5 O5           3.5540    -1.6060     3.1670 o          1 JT1      -0.584800
      6 O6           1.4790    -2.6200     4.1200 o          1 JT1      -0.584800
      7 C7           3.5830    -3.6930     1.1450 ca         1 JT1      -0.007000
      8 C8           3.7600    -4.8080     0.3460 ca         1 JT1      -0.078500
      9 C9           2.8560    -5.8510     0.4030 ca         1 JT1      -0.159300
     10 C10          1.7720    -5.7800     1.2590 ca         1 JT1      -0.078500
     11 C11          1.5980    -4.6680     2.0610 ca         1 JT1      -0.007000
     12 C12          1.9750     0.0000     1.4460 c3         1 JT1       0.144500
     13 C13          1.4680     0.0000     0.0000 c3         1 JT1       0.124800
     14 C14         -0.5340    -1.2210     0.6190 c3         1 JT1       0.111800
     15 C15         -0.1100    -1.2700     2.0900 c3         1 JT1       0.246800
     16 C16          3.4730    -0.1600     1.4580 c          1 JT1       0.595100
     17 O17          3.9900    -1.0820     0.8620 o          1 JT1      -0.677100
     18 N18          4.2400     0.7200     2.1320 ns         1 JT1      -0.142900
     19 C19          5.6970     0.5650     2.1430 c3         1 JT1       0.110300
     20 C20          6.3140     1.6700     2.9600 ca         1 JT1      -0.125300
     21 C21          6.5160     1.4940     4.3160 ca         1 JT1      -0.041000
     22 C22          7.0810     2.5050     5.0700 ca         1 JT1      -0.179000
     23 C23          7.4480     3.6980     4.4640 ca         1 JT1       0.116100
     24 C24          7.2440     3.8730     3.1010 ca         1 JT1       0.093900
     25 C25          6.6830     2.8550     2.3510 ca         1 JT1      -0.088000
     26 C26         -0.4930     0.1620    -1.2760 cc         1 JT1       0.501100
     27 S27         -2.2010     0.2160    -1.6950 ss         1 JT1      -0.186100
     28 N28          0.2340     0.3030    -2.3360 nd         1 JT1      -0.579700
     29 C29         -0.3890     0.4510    -3.5070 ca         1 JT1       0.572300
     30 C30         -1.7870     0.4320    -3.3910 ca         1 JT1      -0.295700
     31 C31         -2.5650     0.5780    -4.5320 ca         1 JT1       0.514200
     32 N32         -1.9660     0.7270    -5.7030 nb         1 JT1      -0.623000
     33 C33         -0.6480     0.7390    -5.7890 ca         1 JT1       0.649300
     34 N34          0.1300     0.6130    -4.7410 nb         1 JT1      -0.565000
     35 O35          8.0030     4.6950     5.2030 os         1 JT1      -0.301900
     36 C36          8.1830     4.4450     6.5980 c3         1 JT1       0.756700
     37 C40          3.0490    -7.0650    -0.4670 c3         1 JT1       0.634200
     38 C44         -0.0140     0.9100    -7.1450 cx         1 JT1      -0.168000
     39 C45         -0.9340     0.8600    -8.3670 cx         1 JT1      -0.063900
     40 C46         -0.3320     2.1930    -7.9160 cx         1 JT1      -0.063900
     41 F37          6.9410     4.1880     7.1890 f          1 JT1      -0.194967
     42 F38          9.0190     3.3370     6.7710 f          1 JT1      -0.194967
     43 F39          8.7620     5.5660     7.2020 f          1 JT1      -0.194967
     44 F41          3.8240    -8.0100     0.2140 f          1 JT1      -0.205633
     45 F42          1.8030    -7.6210    -0.7770 f          1 JT1      -0.205633
     46 F43          3.7000    -6.6930    -1.6490 f          1 JT1      -0.205633
     47 F47          7.6000     5.0330     2.5070 f          1 JT1      -0.114900
     48 H1           4.2930    -2.8760     1.1000 ha         1 JT1       0.152000
     49 H2           4.6090    -4.8640    -0.3250 ha         1 JT1       0.123500
     50 H3           1.0640    -6.5980     1.3060 ha         1 JT1       0.123500
     51 H4           0.7490    -4.6120     2.7320 ha         1 JT1       0.152000
     52 H5           1.7000     0.9310     1.9270 h1         1 JT1       0.033700
     53 H6           1.8280     0.8860    -0.5080 h1         1 JT1       0.051700
     54 H7           1.8290    -0.8860    -0.5080 h1         1 JT1       0.051700
     55 H8          -1.6160    -1.2130     0.5560 h1         1 JT1       0.033200
     56 H9          -0.1430    -2.0880     0.1010 h1         1 JT1       0.033200
     57 H10         -0.5810    -0.4590     2.6310 h1         1 JT1       0.032200
     58 H11         -0.4020    -2.2200     2.5200 h1         1 JT1       0.032200
     59 H12          3.8160     1.4940     2.6030 hn         1 JT1       0.170500
     60 H13          6.0730     0.6130     1.1280 h1         1 JT1       0.039200
     61 H14          5.9550    -0.3930     2.5780 h1         1 JT1       0.039200
     62 H15          6.2300     0.5630     4.7900 ha         1 JT1       0.125000
     63 H16          7.2390     2.3660     6.1320 ha         1 JT1       0.138000
     64 H17          6.5240     2.9900     1.2880 ha         1 JT1       0.128000
     65 H18         -3.6460     0.5690    -4.4650 h4         1 JT1      -0.008900
     66 H19          0.9820     0.5170    -7.3110 hc         1 JT1       0.074700
     67 H20         -1.9880     0.7270    -8.1540 hc         1 JT1       0.050950
     68 H21         -0.5000     0.4300    -9.2620 hc         1 JT1       0.050950
     69 H22          0.4700     2.5770    -8.5350 hc         1 JT1       0.050950
     70 H23         -1.0180     2.8750    -7.4280 hc         1 JT1       0.050950
@<TRIPOS>BOND
     1     1    13 1   
     2     1    14 1   
     3     1    26 1   
     4     2     3 1   
     5     2    12 1   
     6     2    15 1   
     7     3     4 1   
     8     3     5 2   
     9     3     6 2   
    10     4     7 ar  
    11     4    11 ar  
    12     7     8 ar  
    13     7    48 1   
    14     8     9 ar  
    15     8    49 1   
    16     9    10 ar  
    17     9    37 1   
    18    10    11 ar  
    19    10    50 1   
    20    11    51 1   
    21    12    13 1   
    22    12    16 1   
    23    12    52 1   
    24    13    53 1   
    25    13    54 1   
    26    14    15 1   
    27    14    55 1   
    28    14    56 1   
    29    15    57 1   
    30    15    58 1   
    31    16    17 2   
    32    16    18 1   
    33    18    19 1   
    34    18    59 1   
    35    19    20 1   
    36    19    60 1   
    37    19    61 1   
    38    20    21 ar  
    39    20    25 ar  
    40    21    22 ar  
    41    21    62 1   
    42    22    23 ar  
    43    22    63 1   
    44    23    24 ar  
    45    23    35 1   
    46    24    25 ar  
    47    24    47 1   
    48    25    64 1   
    49    26    27 1   
    50    26    28 2   
    51    27    30 1   
    52    28    29 1   
    53    29    30 ar  
    54    29    34 ar  
    55    30    31 ar  
    56    31    32 ar  
    57    31    65 1   
    58    32    33 ar  
    59    33    34 ar  
    60    33    38 1   
    61    35    36 1   
    62    36    41 1   
    63    36    42 1   
    64    36    43 1   
    65    37    44 1   
    66    37    45 1   
    67    37    46 1   
    68    38    39 1   
    69    38    40 1   
    70    38    66 1   
    71    39    40 1   
    72    39    67 1   
    73    39    68 1   
    74    40    69 1   
    75    40    70 1   
@<TRIPOS>SUBSTRUCTURE
     1 JT1         1 TEMP              0 ****  ****    0 ROOT
