@<TRIPOS>MOLECULE
molecule
   42    43     1     0     0
SMALL
bcc


@<TRIPOS>ATOM
      1 C3           0.0000     0.0000     0.0000 c          1 JT5       0.635100
      2 C4           1.5070     0.0000     0.0000 c3         1 JT5       0.165800
      3 C8           2.1360     1.2650    -2.1080 c3         1 JT5       0.243800
      4 N2          -0.6740     0.0000     1.1660 ns         1 JT5      -0.473400
      5 O1          -2.0900     0.0010     1.1670 oh         1 JT5      -0.361100
      6 O5          -0.6060     0.0060    -1.0500 o          1 JT5      -0.562100
      7 N6           1.9960    -0.0000    -1.3820 n3         1 JT5      -0.785500
      8 S7           2.3890    -1.4280    -2.1210 sy         1 JT5       1.429200
      9 C9           3.4930     1.8920    -1.7840 c3         1 JT5       0.115400
     10 O10          4.5370     1.0520    -2.2800 oh         1 JT5      -0.586800
     11 O11          2.6860    -2.3500    -1.0810 o          1 JT5      -0.628300
     12 C12          0.9320    -2.0240    -2.9130 ca         1 JT5      -0.306500
     13 O13          3.3050    -1.1040    -3.1580 o          1 JT5      -0.628300
     14 C14          0.6590    -1.6590    -4.2200 ca         1 JT5      -0.018000
     15 C15         -0.4810    -2.1230    -4.8450 ca         1 JT5      -0.141500
     16 C16         -1.3570    -2.9600    -4.1570 cp         1 JT5       0.024000
     17 C17         -1.0780    -3.3240    -2.8420 ca         1 JT5      -0.141500
     18 C18          0.0680    -2.8590    -2.2290 ca         1 JT5      -0.018000
     19 C19         -2.5880    -3.4570    -4.8220 cp         1 JT5      -0.047000
     20 C20         -2.8670    -3.0920    -6.1380 ca         1 JT5      -0.111500
     21 C21         -4.0120    -3.5580    -6.7520 ca         1 JT5      -0.129000
     22 C22         -4.8820    -4.3840    -6.0630 ca         1 JT5      -0.122000
     23 C23         -4.6100    -4.7480    -4.7560 ca         1 JT5      -0.129000
     24 C24         -3.4630    -4.2940    -4.1350 ca         1 JT5      -0.111500
     25 H25         -0.1730     0.0040     2.0330 hn         1 JT5       0.318500
     26 H26          1.8680     0.8850     0.5110 h1         1 JT5       0.082700
     27 H27          1.8690    -0.8840     0.5110 h1         1 JT5       0.082700
     28 H28          1.3450     1.9420    -1.8090 h1         1 JT5       0.068700
     29 H29          2.0690     1.0790    -3.1730 h1         1 JT5       0.068700
     30 H30          3.5610     2.8660    -2.2510 h1         1 JT5       0.023200
     31 H31          3.5950     1.9980    -0.7110 h1         1 JT5       0.023200
     32 H32          5.3380     1.5460    -2.3370 ho         1 JT5       0.401000
     33 H33          1.3410    -1.0080    -4.7530 ha         1 JT5       0.144000
     34 H34         -0.6930    -1.8370    -5.8680 ha         1 JT5       0.136000
     35 H35         -1.7550    -3.9760    -2.3040 ha         1 JT5       0.136000
     36 H36          0.2860    -3.1410    -1.2060 ha         1 JT5       0.144000
     37 H37         -2.1860    -2.4460    -6.6780 ha         1 JT5       0.134500
     38 H38         -4.2310    -3.2750    -7.7740 ha         1 JT5       0.131000
     39 H39         -5.7810    -4.7440    -6.5470 ha         1 JT5       0.129000
     40 H40         -5.2940    -5.3980    -4.2220 ha         1 JT5       0.131000
     41 H41         -3.2510    -4.5800    -3.1120 ha         1 JT5       0.134500
     42 H42         -2.4040    -0.0130     2.0560 ho         1 JT5       0.399000
@<TRIPOS>BOND
     1    39    22 1
     2    38    21 1
     3    22    21 ar
     4    22    23 ar
     5    21    20 ar
     6    40    23 1
     7    23    24 ar
     8    20    37 1
     9    20    19 ar
    10    24    19 ar
    11    24    41 1
    12    19    16 1
    13    35    17 1
    14    16    17 ar
    15    16    15 ar
    16    34    15 1
    17    17    18 ar
    18    15    14 ar
    19    18    36 1
    20    18    12 ar
    21    14    12 ar
    22    14    33 1
    23     5     4 1
    24     6     1 2
    25    12     8 1
    26     4     1 1
    27     4    25 1
    28     1     2 1
    29    27     2 1
    30    30     9 1
    31     2     7 1
    32     2    26 1
    33     8    13 2
    34     8     7 1
    35     8    11 2
    36    31     9 1
    37     7     3 1
    38     9     3 1
    39     9    10 1
    40    32    10 1
    41     3    28 1
    42     3    29 1
    43     5    42 1
@<TRIPOS>SUBSTRUCTURE
     1 JT5         1 TEMP              0 ****  ****    0 ROOT
