@<TRIPOS>MOLECULE
JT5
   42    43     1     0     0
SMALL
bcc


@<TRIPOS>ATOM
      1 C3           0.0000     0.0000     0.0000 c          1 JT5       0.536100
      2 C4           1.5070     0.0000     0.0000 c3         1 JT5       0.158800
      3 C8           2.1360     1.2650    -2.1080 c3         1 JT5       0.231800
      4 N2          -0.6740     0.0000     1.1660 ns         1 JT5      -0.056400
      5 O1          -2.0900     0.0010     1.1670 oh         1 JT5      -0.439100
      6 O5          -0.6060     0.0060    -1.0500 o          1 JT5      -0.616100
      7 N6           1.9960    -0.0000    -1.3820 n3         1 JT5      -0.488500
      8 S7           2.3890    -1.4280    -2.1210 sy         1 JT5       1.052200
      9 C9           3.4930     1.8920    -1.7840 c3         1 JT5       0.194400
     10 O10          4.5370     1.0520    -2.2800 oh         1 JT5      -0.560800
     11 O11          2.6860    -2.3500    -1.0810 o          1 JT5      -0.583300
     12 C12          0.9320    -2.0240    -2.9130 ca         1 JT5      -0.148500
     13 O13          3.3050    -1.1040    -3.1580 o          1 JT5      -0.583300
     14 C14          0.6590    -1.6590    -4.2200 ca         1 JT5       0.016000
     15 C15         -0.4810    -2.1230    -4.8450 ca         1 JT5      -0.131500
     16 C16         -1.3570    -2.9600    -4.1570 cp         1 JT5       0.026000
     17 C17         -1.0780    -3.3240    -2.8420 ca         1 JT5      -0.131500
     18 C18          0.0680    -2.8590    -2.2290 ca         1 JT5       0.016000
     19 C19         -2.5880    -3.4570    -4.8220 cp         1 JT5      -0.043000
     20 C20         -2.8670    -3.0920    -6.1380 ca         1 JT5      -0.092000
     21 C21         -4.0120    -3.5580    -6.7520 ca         1 JT5      -0.100500
     22 C22         -4.8820    -4.3840    -6.0630 ca         1 JT5      -0.097000
     23 C23         -4.6100    -4.7480    -4.7560 ca         1 JT5      -0.100500
     24 C24         -3.4630    -4.2940    -4.1350 ca         1 JT5      -0.092000
     25 H25         -0.1730     0.0040     2.0330 hn         1 JT5       0.154500
     26 H26          1.8680     0.8850     0.5110 h1         1 JT5       0.042700
     27 H27          1.8690    -0.8840     0.5110 h1         1 JT5       0.042700
     28 H28          1.3450     1.9420    -1.8090 h1         1 JT5       0.029200
     29 H29          2.0690     1.0790    -3.1730 h1         1 JT5       0.029200
     30 H30          3.5610     2.8660    -2.2510 h1         1 JT5      -0.015800
     31 H31          3.5950     1.9980    -0.7110 h1         1 JT5      -0.015800
     32 H32          5.3380     1.5460    -2.3370 ho         1 JT5       0.382000
     33 H33          1.3410    -1.0080    -4.7530 ha         1 JT5       0.115500
     34 H34         -0.6930    -1.8370    -5.8680 ha         1 JT5       0.114000
     35 H35         -1.7550    -3.9760    -2.3040 ha         1 JT5       0.114000
     36 H36          0.2860    -3.1410    -1.2060 ha         1 JT5       0.115500
     37 H37         -2.1860    -2.4460    -6.6780 ha         1 JT5       0.112000
     38 H38         -4.2310    -3.2750    -7.7740 ha         1 JT5       0.102000
     39 H39         -5.7810    -4.7440    -6.5470 ha         1 JT5       0.101000
     40 H40         -5.2940    -5.3980    -4.2220 ha         1 JT5       0.102000
     41 H41         -3.2510    -4.5800    -3.1120 ha         1 JT5       0.112000
     42 H42         -2.4040    -0.0130     2.0560 ho         1 JT5       0.393000
@<TRIPOS>BOND
     1     1     2 1   
     2     1     4 1   
     3     1     6 2   
     4     2     7 1   
     5     2    26 1   
     6     2    27 1   
     7     3     7 1   
     8     3     9 1   
     9     3    28 1   
    10     3    29 1   
    11     4     5 1   
    12     4    25 1   
    13     5    42 1   
    14     7     8 1   
    15     8    11 2   
    16     8    12 1   
    17     8    13 2   
    18     9    10 1   
    19     9    30 1   
    20     9    31 1   
    21    10    32 1   
    22    12    14 ar  
    23    12    18 ar  
    24    14    15 ar  
    25    14    33 1   
    26    15    16 ar  
    27    15    34 1   
    28    16    17 ar  
    29    16    19 1   
    30    17    18 ar  
    31    17    35 1   
    32    18    36 1   
    33    19    20 ar  
    34    19    24 ar  
    35    20    21 ar  
    36    20    37 1   
    37    21    22 ar  
    38    21    38 1   
    39    22    23 ar  
    40    22    39 1   
    41    23    24 ar  
    42    23    40 1   
    43    24    41 1   
@<TRIPOS>SUBSTRUCTURE
     1 JT5         1 TEMP              0 ****  ****    0 ROOT
