@<TRIPOS>MOLECULE
molecule
   35    36     1     0     0
SMALL
bcc


@<TRIPOS>ATOM
      1 C17          0.0000     0.0000     0.0000 ca         1 JT6      -0.042000
      2 C16          1.3980     0.0000     0.0000 ca         1 JT6      -0.099000
      3 C15          2.0860     0.0000     1.1920 ca         1 JT6      -0.121500
      4 C14          1.3880    -0.0000     2.4000 cp         1 JT6       0.008000
      5 C13          4.2110    -0.0010     4.8800 ca         1 JT6      -0.218000
      6 C12          3.5240    -0.0010     3.6850 ca         1 JT6      -0.078500
      7 C10          1.4340    -0.0020     4.8920 ca         1 JT6      -0.078500
      8 C9           2.1270    -0.0070     6.0850 ca         1 JT6      -0.218000
      9 C18         -0.6980    -0.0000     1.2110 ca         1 JT6      -0.099000
     10 C8           3.5160    -0.0070     6.0820 ca         1 JT6       0.149100
     11 C19         -0.0070    -0.0000     2.4020 ca         1 JT6      -0.121500
     12 C1           3.5300    -0.0300    10.9350 c          1 JT6       0.594100
     13 C6           3.4180    -0.0180     8.4570 c3         1 JT6       0.163400
     14 C3           4.3500    -0.0230     9.6700 c3         1 JT6      -0.153400
     15 N2           4.1430    -0.0350    12.1350 ns         1 JT6      -0.328400
     16 O4           2.3190    -0.0290    10.8710 o          1 JT6      -0.542100
     17 O5           3.3720    -0.0400    13.3230 oh         1 JT6      -0.437100
     18 O7           4.1960    -0.0120     7.2580 os         1 JT6      -0.370900
     19 C11          2.1290    -0.0020     3.6840 cp         1 JT6      -0.056000
     20 C20         -0.7160     0.0060    -1.2400 cg         1 JT6       0.238800
     21 N21         -1.2890    -0.0080    -2.2200 n1         1 JT6      -0.364800
     22 H31          3.1370    -0.2610     1.1730 ha         1 JT6       0.142000
     23 H32          1.5980    -0.2000    -1.0460 ha         1 JT6       0.149000
     24 H22          4.4930    -0.9590    12.2910 hn         1 JT6       0.254500
     25 H23          5.1330    -0.7200     9.9450 hc         1 JT6       0.095700
     26 H24          4.5790     1.0150     9.4610 hc         1 JT6       0.095700
     27 H25          2.8060    -0.9120     8.4530 h1         1 JT6       0.063200
     28 H26          2.9420     0.9120     8.1700 h1         1 JT6       0.063200
     29 H27          1.3190    -0.1720     6.7870 ha         1 JT6       0.158000
     30 H28          0.3740    -0.2170     4.9490 ha         1 JT6       0.146500
     31 H29          4.3770    -0.2310     3.0580 ha         1 JT6       0.146500
     32 H30          5.2240     0.0320     5.2630 ha         1 JT6       0.158000
     33 H33         -1.6890     0.4030     1.3810 ha         1 JT6       0.149000
     34 H34         -0.6560    -0.2190     3.2410 ha         1 JT6       0.142000
     35 H35          4.0590    -0.0590    13.9680 ho         1 JT6       0.412000
@<TRIPOS>BOND
     1    21    20 3
     2    20     1 1
     3    33     9 1
     4     1     9 ar
     5     1     2 ar
     6     9    11 ar
     7    23     2 1
     8     2     3 ar
     9    11    34 1
    10    11     4 ar
    11     3     4 ar
    12     3    22 1
    13     4    19 1
    14    19     7 ar
    15    19     6 ar
    16    30     7 1
    17    31     6 1
    18     7     8 ar
    19     6     5 ar
    20     8    29 1
    21     8    10 ar
    22     5    32 1
    23     5    10 ar
    24    10    18 1
    25    28    13 1
    26    18    13 1
    27    17    15 1
    28    13    27 1
    29    13    14 1
    30    16    12 2
    31    15    12 1
    32    15    24 1
    33    12    14 1
    34    14    25 1
    35    14    26 1
    36    17    35 1
@<TRIPOS>SUBSTRUCTURE
     1 JT6         1 TEMP              0 ****  ****    0 ROOT
