@<TRIPOS>MOLECULE
JT6
   35    36     1     0     0
SMALL
bcc


@<TRIPOS>ATOM
      1 C17          0.0000     0.0000     0.0000 ca         1 JT6       0.001000
      2 C16          1.3980     0.0000     0.0000 ca         1 JT6      -0.082000
      3 C15          2.0860     0.0000     1.1920 ca         1 JT6      -0.094500
      4 C14          1.3880    -0.0000     2.4000 cp         1 JT6       0.012000
      5 C13          4.2110    -0.0010     4.8800 ca         1 JT6      -0.207000
      6 C12          3.5240    -0.0010     3.6850 ca         1 JT6      -0.051500
      7 C10          1.4340    -0.0020     4.8920 ca         1 JT6      -0.051500
      8 C9           2.1270    -0.0070     6.0850 ca         1 JT6      -0.207000
      9 C18         -0.6980    -0.0000     1.2110 ca         1 JT6      -0.082000
     10 C8           3.5160    -0.0070     6.0820 ca         1 JT6       0.162100
     11 C19         -0.0070    -0.0000     2.4020 ca         1 JT6      -0.094500
     12 C1           3.5300    -0.0300    10.9350 c          1 JT6       0.562100
     13 C6           3.4180    -0.0180     8.4570 c3         1 JT6       0.223400
     14 C3           4.3500    -0.0230     9.6700 c3         1 JT6      -0.108400
     15 N2           4.1430    -0.0350    12.1350 ns         1 JT6      -0.082400
     16 O4           2.3190    -0.0290    10.8710 o          1 JT6      -0.580100
     17 O5           3.3720    -0.0400    13.3230 oh         1 JT6      -0.468100
     18 O7           4.1960    -0.0120     7.2580 os         1 JT6      -0.345900
     19 C11          2.1290    -0.0020     3.6840 cp         1 JT6      -0.053000
     20 C20         -0.7160     0.0060    -1.2400 cg         1 JT6       0.231800
     21 N21         -1.2890    -0.0080    -2.2200 n1         1 JT6      -0.383800
     22 H31          3.1370    -0.2610     1.1730 ha         1 JT6       0.116500
     23 H32          1.5980    -0.2000    -1.0460 ha         1 JT6       0.121000
     24 H22          4.4930    -0.9590    12.2910 hn         1 JT6       0.142500
     25 H23          5.1330    -0.7200     9.9450 hc         1 JT6       0.057700
     26 H24          4.5790     1.0150     9.4610 hc         1 JT6       0.057700
     27 H25          2.8060    -0.9120     8.4530 h1         1 JT6       0.026200
     28 H26          2.9420     0.9120     8.1700 h1         1 JT6       0.026200
     29 H27          1.3190    -0.1720     6.7870 ha         1 JT6       0.136500
     30 H28          0.3740    -0.2170     4.9490 ha         1 JT6       0.119000
     31 H29          4.3770    -0.2310     3.0580 ha         1 JT6       0.119000
     32 H30          5.2240     0.0320     5.2630 ha         1 JT6       0.136500
     33 H33         -1.6890     0.4030     1.3810 ha         1 JT6       0.121000
     34 H34         -0.6560    -0.2190     3.2410 ha         1 JT6       0.116500
     35 H35          4.0590    -0.0590    13.9680 ho         1 JT6       0.404000
@<TRIPOS>BOND
     1     1     2 ar  
     2     1     9 ar  
     3     1    20 1   
     4     2     3 ar  
     5     2    23 1   
     6     3     4 ar  
     7     3    22 1   
     8     4    11 ar  
     9     4    19 1   
    10     5     6 ar  
    11     5    10 ar  
    12     5    32 1   
    13     6    19 ar  
    14     6    31 1   
    15     7     8 ar  
    16     7    19 ar  
    17     7    30 1   
    18     8    10 ar  
    19     8    29 1   
    20     9    11 ar  
    21     9    33 1   
    22    10    18 1   
    23    11    34 1   
    24    12    14 1   
    25    12    15 1   
    26    12    16 2   
    27    13    14 1   
    28    13    18 1   
    29    13    27 1   
    30    13    28 1   
    31    14    25 1   
    32    14    26 1   
    33    15    17 1   
    34    15    24 1   
    35    17    35 1   
    36    20    21 3   
@<TRIPOS>SUBSTRUCTURE
     1 JT6         1 TEMP              0 ****  ****    0 ROOT
