@<TRIPOS>MOLECULE
JTF
   37    38     1     0     0
SMALL
bcc


@<TRIPOS>ATOM
      1 C01          0.0000     0.0000     0.0000 c3         1 JTF       0.181100
      2 N01          1.4690     0.0000     0.0000 n3         1 JTF      -0.540600
      3 C02          1.9950     0.0000     1.3720 c3         1 JTF       0.181100
      4 C03          1.9950    -1.1370    -0.7660 c3         1 JTF       0.143800
      5 C04          1.6320    -0.9690    -2.2430 c3         1 JTF       0.160800
      6 N02          2.1570    -2.1030    -3.0070 nu         1 JTF      -0.438600
      7 C05          1.9490    -2.1720    -4.3880 ca         1 JTF       0.034600
      8 C06          1.2470    -1.1710    -5.0380 ca         1 JTF      -0.161000
      9 C07          1.0360    -1.2310    -6.4080 ca         1 JTF      -0.076000
     10 C08          1.5160    -2.2790    -7.1420 ca         1 JTF      -0.109000
     11 C09          2.2300    -3.3040    -6.5090 ca         1 JTF      -0.073800
     12 C10          2.7560    -4.4390    -7.2690 cc         1 JTF      -0.024200
     13 C11          3.4380    -5.4040    -6.6040 cd         1 JTF      -0.192400
     14 C12          3.9930    -6.5860    -7.3560 c3         1 JTF       0.082100
     15 C13          3.6300    -5.3050    -5.2090 c          1 JTF       0.597700
     16 O1           4.2470    -6.1820    -4.6300 o          1 JTF      -0.701500
     17 N1           3.1520    -4.2650    -4.5030 ns         1 JTF       0.045900
     18 C1           2.4540    -3.2490    -5.1230 ca         1 JTF      -0.143400
     19 H011        -0.3610     0.5110    -0.8840 h1         1 JTF       0.003367
     20 H012        -0.3610    -1.0210    -0.0000 h1         1 JTF       0.003367
     21 H013        -0.3610     0.5100     0.8850 h1         1 JTF       0.003367
     22 H021         1.6520    -0.8870     1.8900 h1         1 JTF       0.003367
     23 H022         1.6430     0.8820     1.8940 h1         1 JTF       0.003367
     24 H023         3.0780     0.0060     1.3430 h1         1 JTF       0.003367
     25 H031         1.5640    -2.0570    -0.3910 h1         1 JTF       0.012700
     26 H032         3.0730    -1.1740    -0.6620 h1         1 JTF       0.012700
     27 H041         2.0630    -0.0490    -2.6190 h1         1 JTF       0.024700
     28 H042         0.5540    -0.9310    -2.3480 h1         1 JTF       0.024700
     29 H02          2.6830    -2.8170    -2.5440 hn         1 JTF       0.289800
     30 H06          0.8590    -0.3330    -4.4710 ha         1 JTF       0.118000
     31 H07          0.4840    -0.4390    -6.9000 ha         1 JTF       0.102000
     32 H08          1.3460    -2.3160    -8.2110 ha         1 JTF       0.109000
     33 H10          2.4170    -4.6170    -8.2830 ha         1 JTF       0.115000
     34 H121         5.0560    -6.6660    -7.1690 hc         1 JTF       0.011700
     35 H122         3.8220    -6.4510    -8.4180 hc         1 JTF       0.011700
     36 H123         3.4980    -7.4900    -7.0230 hc         1 JTF       0.011700
     37 H1           3.3060    -4.2260    -3.5150 hn         1 JTF       0.168500
@<TRIPOS>BOND
     1     1     2 1   
     2     1    19 1   
     3     1    20 1   
     4     1    21 1   
     5     2     3 1   
     6     2     4 1   
     7     3    22 1   
     8     3    23 1   
     9     3    24 1   
    10     4     5 1   
    11     4    25 1   
    12     4    26 1   
    13     5     6 1   
    14     5    27 1   
    15     5    28 1   
    16     6     7 1   
    17     6    29 1   
    18     7     8 ar  
    19     7    18 ar  
    20     8     9 ar  
    21     8    30 1   
    22     9    10 ar  
    23     9    31 1   
    24    10    11 ar  
    25    10    32 1   
    26    11    12 1   
    27    11    18 ar  
    28    12    13 2   
    29    12    33 1   
    30    13    14 1   
    31    13    15 1   
    32    14    34 1   
    33    14    35 1   
    34    14    36 1   
    35    15    16 2   
    36    15    17 1   
    37    17    18 1   
    38    17    37 1   
@<TRIPOS>SUBSTRUCTURE
     1 JTF         1 TEMP              0 ****  ****    0 ROOT
