@<TRIPOS>MOLECULE
molecule
   25    25     1     0     0
SMALL
bcc


@<TRIPOS>ATOM
      1 C1           0.0000     0.0000     0.0000 c          1 JTH       0.515500
      2 O1          -0.5360     0.0060    -1.1000 o          1 JTH      -0.538100
      3 C2           1.4130     0.0000     0.0000 cc         1 JTH       0.036900
      4 O2           2.0040     0.0000    -1.2200 oh         1 JTH      -0.501100
      5 C3           2.2700     0.0000     1.0850 cd         1 JTH      -0.109000
      6 C4           1.9570    -0.0010     2.4390 cd         1 JTH      -0.049200
      7 C5           0.7140    -0.0020     3.0440 cc         1 JTH      -0.113000
      8 C6          -0.5440    -0.0020     2.4570 cc         1 JTH      -0.117000
      9 C7          -0.8710    -0.0010     1.1110 cd         1 JTH       0.030900
     10 O7          -2.1970     0.0000     0.8250 oh         1 JTH      -0.498100
     11 C41          3.9840    -1.2500     3.1310 c3         1 JTH      -0.088100
     12 C42          3.1350    -0.0010     3.3780 c3         1 JTH      -0.048500
     13 C43          3.9840     1.2480     3.1320 c3         1 JTH      -0.088100
     14 H3           3.3270     0.0020     0.8480 ha         1 JTH       0.145000
     15 H5           0.7230    -0.0020     4.1280 ha         1 JTH       0.132000
     16 H6          -1.3820    -0.0030     3.1440 ha         1 JTH       0.139000
     17 H41          4.5790    -1.1110     2.2360 hc         1 JTH       0.040367
     18 H41A         4.6390    -1.4150     3.9780 hc         1 JTH       0.040367
     19 H41B         3.3350    -2.1080     3.0030 hc         1 JTH       0.040367
     20 H42          2.7820    -0.0020     4.4020 hc         1 JTH       0.058700
     21 H43          4.6350     1.4160     3.9820 hc         1 JTH       0.040367
     22 H43A         3.3350     2.1050     3.0000 hc         1 JTH       0.040367
     23 H43B         4.5830     1.1080     2.2410 hc         1 JTH       0.040367
     24 H11          2.1230    -0.8890    -1.5120 ho         1 JTH       0.426000
     25 H12         -2.5350    -0.8760     0.9010 ho         1 JTH       0.423000
@<TRIPOS>BOND
     1     1     3 1
     2     1     9 1
     3     2     1 2
     4     3     5 2
     5     4     3 1
     6     5     6 1
     7     5    14 1
     8     6     7 2
     9     6    12 1
    10     7    15 1
    11     8     7 1
    12     8    16 1
    13     9     8 2
    14    10     9 1
    15    11    12 1
    16    11    17 1
    17    11    18 1
    18    11    19 1
    19    12    13 1
    20    12    20 1
    21    13    21 1
    22    13    22 1
    23    13    23 1
    24     4    24 1
    25    10    25 1
@<TRIPOS>SUBSTRUCTURE
     1 JTH         1 TEMP              0 ****  ****    0 ROOT
