@<TRIPOS>MOLECULE
JTH
   25    25     1     0     0
SMALL
bcc


@<TRIPOS>ATOM
      1 C1         -0.0300   -0.2210   -0.0250 c         1 JTH      0.514500
      2 O1         -0.5790   -0.3010   -1.1500 o         1 JTH     -0.605100
      3 C2          1.4300   -0.1990    0.0430 cc        1 JTH      0.031900
      4 O2          2.0760   -0.2700   -1.1800 oh        1 JTH     -0.508100
      5 C3          2.2750   -0.1200    1.1090 cd        1 JTH     -0.108000
      6 C4          1.9850   -0.0340    2.4980 cd        1 JTH     -0.041200
      7 C5          0.7500   -0.0110    3.0760 cc        1 JTH     -0.116000
      8 C6         -0.5310   -0.0650    2.4810 cc        1 JTH     -0.108000
      9 C7         -0.8740   -0.1540    1.1650 cd        1 JTH      0.028900
     10 O7         -2.2370   -0.1860    0.9310 oh        1 JTH     -0.505100
     11 C41         4.0390   -1.2080    3.2980 c3        1 JTH     -0.092100
     12 C42         3.1860    0.0400    3.4130 c3        1 JTH     -0.034500
     13 C43         4.0080    1.2840    3.1380 c3        1 JTH     -0.092100
     14 H3          3.3570   -0.1230    0.8500 ha        1 JTH      0.156000
     15 H5          0.7120    0.0600    4.1830 ha        1 JTH      0.134000
     16 H6         -1.3810   -0.0290    3.1960 ha        1 JTH      0.153000
     17 H41         4.8710   -1.1650    4.0420 hc        1 JTH      0.040367
     18 H41A        3.4260   -2.1190    3.4990 hc        1 JTH      0.040367
     19 H41B        4.4840   -1.2990    2.2780 hc        1 JTH      0.040367
     20 H42         2.8210    0.1040    4.4800 hc        1 JTH      0.053700
     21 H43         4.4520    1.2550    2.1140 hc        1 JTH      0.040367
     22 H43A        3.3730    2.1980    3.2230 hc        1 JTH      0.040367
     23 H43B        4.8400    1.3570    3.8790 hc        1 JTH      0.040367
     24 H11         1.4100   -0.3240   -1.8870 ho        1 JTH      0.448000
     25 H12        -2.3900   -0.2500   -0.0280 ho        1 JTH      0.447000
@<TRIPOS>BOND
     1    1    2 2   
     2    1    3 1   
     3    1    9 1   
     4    3    4 1   
     5    3    5 2   
     6    4   24 1   
     7    5    6 1   
     8    5   14 1   
     9    6    7 2   
    10    6   12 1   
    11    7    8 1   
    12    7   15 1   
    13    8    9 2   
    14    8   16 1   
    15    9   10 1   
    16   10   25 1   
    17   11   12 1   
    18   11   17 1   
    19   11   18 1   
    20   11   19 1   
    21   12   13 1   
    22   12   20 1   
    23   13   21 1   
    24   13   22 1   
    25   13   23 1   
@<TRIPOS>SUBSTRUCTURE
     1 JTH         1 TEMP              0 ****  ****    0 ROOT
