@<TRIPOS>MOLECULE
JTP
   62    66     1     0     0
SMALL
bcc


@<TRIPOS>ATOM
      1 C1           0.0000     0.0000     0.0000 c3         1 JTP      -0.010600
      2 C2           1.5300     0.0000     0.0000 c3         1 JTP      -0.102600
      3 N3           2.0100     0.0000     1.3640 ns         1 JTP      -0.156900
      4 C4           1.7260    -1.0160     2.2840 c          1 JTP       0.570700
      5 C5           2.2620    -0.8590     3.6270 ca         1 JTP      -0.110600
      6 C6           1.6090    -1.4560     4.7020 ca         1 JTP      -0.075000
      7 C7           2.1030    -1.3170     6.0020 ca         1 JTP      -0.085000
      8 C8           3.2740    -0.5620     6.2200 ca         1 JTP      -0.090800
      9 C9           3.9160     0.0300     5.1280 ca         1 JTP      -0.215200
     10 N10          5.0180     0.6850     5.6260 na         1 JTP       0.422600
     11 C11          5.0840     0.5680     7.0000 cc         1 JTP      -0.170300
     12 C12          6.1440     1.2080     7.7820 ca         1 JTP      -0.026800
     13 C13          6.5850     2.5060     7.4640 ca         1 JTP       0.114100
     14 C14          7.5900     3.1220     8.2120 ca         1 JTP      -0.120000
     15 C15          8.1900     2.4340     9.2640 ca         1 JTP      -0.096000
     16 C16          7.7710     1.1420     9.5830 ca         1 JTP      -0.120000
     17 C17          6.7500     0.5330     8.8500 ca         1 JTP      -0.080000
     18 O18          5.9480     3.2700     6.5220 os         1 JTP      -0.309900
     19 C19          6.1230     2.8590     5.1590 c3         1 JTP       0.198400
     20 C20          6.0530     1.3620     4.8640 c3         1 JTP      -0.086700
     21 C21          4.0230    -0.2290     7.3830 cd         1 JTP      -0.125400
     22 C22          3.5700    -0.6710     8.7580 c3         1 JTP       0.046500
     23 C23          2.2110    -0.0630     9.1500 c3         1 JTP      -0.026900
     24 C24          1.7820    -0.5010    10.5500 c3         1 JTP      -0.019400
     25 C25          1.7690    -2.0200    10.6860 c3         1 JTP      -0.022400
     26 C26          3.1140    -2.6310    10.3020 c3         1 JTP      -0.019400
     27 C27          3.5500    -2.2040     8.9020 c3         1 JTP      -0.026900
     28 C28          3.4250    -0.1080     3.8200 ca         1 JTP      -0.076000
     29 O29          1.0330    -2.0060     1.9930 o          1 JTP      -0.693100
     30 C30          2.0220     1.2490    -0.7270 c          1 JTP       0.988600
     31 O31          1.7610     1.5080    -1.8960 o          1 JTP      -0.885300
     32 O32          2.7820     2.0600     0.0480 o          1 JTP      -0.885300
     33 C33          2.0670    -1.2350    -0.7270 c3         1 JTP      -0.010600
     34 H11         -0.3610     0.7580     0.6850 hc         1 JTP       0.007033
     35 H12         -0.3610     0.2140    -0.9990 hc         1 JTP       0.007033
     36 H13         -0.3610    -0.9720     0.3140 hc         1 JTP       0.007033
     37 H331         1.9090    -1.1230    -1.7930 hc         1 JTP       0.007033
     38 H332         1.5450    -2.1160    -0.3750 hc         1 JTP       0.007033
     39 H333         3.1270    -1.3390    -0.5280 hc         1 JTP       0.007033
     40 HN3          2.5760     0.7680     1.6660 hn         1 JTP       0.218500
     41 H6           0.7090    -2.0340     4.5290 ha         1 JTP       0.122000
     42 H7           1.5910    -1.7840     6.8340 ha         1 JTP       0.105000
     43 H28          4.0590     0.1360     2.9750 ha         1 JTP       0.126000
     44 H201         7.0110     0.9160     5.1050 h1         1 JTP       0.042200
     45 H202         5.8540     1.2250     3.8080 h1         1 JTP       0.042200
     46 H191         5.3590     3.3480     4.5670 h1         1 JTP       0.020200
     47 H192         7.0900     3.2160     4.8280 h1         1 JTP       0.020200
     48 H14          7.9150     4.1250     7.9630 ha         1 JTP       0.114000
     49 H15          8.9820     2.9020     9.8360 ha         1 JTP       0.099000
     50 H16          8.2390     0.6090    10.4020 ha         1 JTP       0.100000
     51 H17          6.4300    -0.4700     9.1040 ha         1 JTP       0.116000
     52 H22          4.2970    -0.2990     9.4690 hc         1 JTP       0.013700
     53 H271         2.8590    -2.6170     8.1770 hc         1 JTP       0.021200
     54 H272         4.5440    -2.5890     8.7100 hc         1 JTP       0.021200
     55 H261         3.8620    -2.3100    11.0170 hc         1 JTP       0.006200
     56 H262         3.0300    -3.7100    10.3310 hc         1 JTP       0.006200
     57 H251         1.5450    -2.2800    11.7130 hc         1 JTP       0.007700
     58 H252         1.0010    -2.4250    10.0380 hc         1 JTP       0.007700
     59 H241         2.4730    -0.0880    11.2750 hc         1 JTP       0.006200
     60 H242         0.7860    -0.1210    10.7470 hc         1 JTP       0.006200
     61 H231         2.2890     1.0170     9.1270 hc         1 JTP       0.021200
     62 H232         1.4620    -0.3840     8.4360 hc         1 JTP       0.021200
@<TRIPOS>BOND
     1     1     2 1   
     2     1    34 1   
     3     1    35 1   
     4     1    36 1   
     5     2     3 1   
     6     2    30 1   
     7     2    33 1   
     8     3     4 1   
     9     3    40 1   
    10     4     5 1   
    11     4    29 2   
    12     5     6 ar  
    13     5    28 ar  
    14     6     7 ar  
    15     6    41 1   
    16     7     8 ar  
    17     7    42 1   
    18     8     9 ar  
    19     8    21 1   
    20     9    10 1   
    21     9    28 ar  
    22    10    11 1   
    23    10    20 1   
    24    11    12 1   
    25    11    21 2   
    26    12    13 ar  
    27    12    17 ar  
    28    13    14 ar  
    29    13    18 1   
    30    14    15 ar  
    31    14    48 1   
    32    15    16 ar  
    33    15    49 1   
    34    16    17 ar  
    35    16    50 1   
    36    17    51 1   
    37    18    19 1   
    38    19    20 1   
    39    19    46 1   
    40    19    47 1   
    41    20    44 1   
    42    20    45 1   
    43    21    22 1   
    44    22    23 1   
    45    22    27 1   
    46    22    52 1   
    47    23    24 1   
    48    23    61 1   
    49    23    62 1   
    50    24    25 1   
    51    24    59 1   
    52    24    60 1   
    53    25    26 1   
    54    25    57 1   
    55    25    58 1   
    56    26    27 1   
    57    26    55 1   
    58    26    56 1   
    59    27    53 1   
    60    27    54 1   
    61    28    43 1   
    62    30    31 1   
    63    30    32 1   
    64    33    37 1   
    65    33    38 1   
    66    33    39 1   
@<TRIPOS>SUBSTRUCTURE
     1 JTP         1 TEMP              0 ****  ****    0 ROOT
