@<TRIPOS>MOLECULE
molecule
   31    33     1     0     0
SMALL
bcc


@<TRIPOS>ATOM
      1 C22          0.0000     0.0000     0.0000 cc         1 JTS       0.472300
      2 S21          1.7100     0.0000     0.0000 ss         1 JTS      -0.215300
      3 N23         -0.4510     0.0040     1.2140 nc         1 JTS      -0.684000
      4 C24          0.4290     0.0090     2.1830 cc         1 JTS       0.454600
      5 C26          0.0440     0.0150     3.6390 c3         1 JTS      -0.119400
      6 C20          1.7200     0.0000     1.7620 cd         1 JTS      -0.231000
      7 C1           2.9090     0.0010     2.6200 c          1 JTS       0.713700
      8 O8           2.7860     0.0120     3.8310 o          1 JTS      -0.587100
      9 N9           4.1380    -0.0090     2.0680 ns         1 JTS      -0.472100
     10 C10          5.2710     0.0890     2.8820 ca         1 JTS       0.044600
     11 C15          5.2710    -0.5070     4.1240 ca         1 JTS      -0.108000
     12 C14          6.4110    -0.4070     4.9370 ca         1 JTS      -0.023000
     13 C16          6.4500    -1.0010     6.2110 ca         1 JTS      -0.112000
     14 C17          7.5720    -0.8850     6.9740 ca         1 JTS      -0.125000
     15 C18          8.6840    -0.1830     6.5120 ca         1 JTS      -0.128000
     16 C19          8.6820     0.4060     5.2850 ca         1 JTS      -0.115000
     17 C13          7.5420     0.3070     4.4670 ca         1 JTS      -0.047000
     18 C12          7.5080     0.9030     3.1950 ca         1 JTS      -0.101000
     19 C11          6.3940     0.7860     2.4230 ca         1 JTS      -0.148000
     20 H1          -0.6180    -0.0020    -0.8900 h5         1 JTS       0.066100
     21 H2           0.4860     0.8750     4.1270 hc         1 JTS       0.064033
     22 H3           0.4020    -0.8920     4.1110 hc         1 JTS       0.064033
     23 H4          -1.0350     0.0650     3.7270 hc         1 JTS       0.064033
     24 H5           4.2410    -0.1050     1.0770 hn         1 JTS       0.324500
     25 H6           4.4560    -1.1600     4.4110 ha         1 JTS       0.162000
     26 H7           5.5930    -1.5500     6.5830 ha         1 JTS       0.137000
     27 H8           7.6000    -1.3440     7.9550 ha         1 JTS       0.129000
     28 H9           9.5640    -0.1060     7.1390 ha         1 JTS       0.128000
     29 H10          9.5540     0.9480     4.9400 ha         1 JTS       0.131000
     30 H11          8.3700     1.4460     2.8260 ha         1 JTS       0.135000
     31 H12          6.3760     1.2400     1.4390 ha         1 JTS       0.128000
@<TRIPOS>BOND
     1    14    13 ar
     2    14    15 ar
     3    13    12 ar
     4    15    16 ar
     5    12    11 ar
     6    12    17 ar
     7    11    10 ar
     8    16    17 ar
     9    17    18 ar
    10    10     9 1
    11    10    19 ar
    12     9     7 1
    13     5     4 1
    14     4     3 1
    15     4     6 2
    16     3     1 2
    17    18    19 ar
    18     6     7 1
    19     6     2 1
    20     1     2 1
    21     7     8 2
    22     1    20 1
    23     5    21 1
    24     5    22 1
    25     5    23 1
    26     9    24 1
    27    11    25 1
    28    13    26 1
    29    14    27 1
    30    15    28 1
    31    16    29 1
    32    18    30 1
    33    19    31 1
@<TRIPOS>SUBSTRUCTURE
     1 JTS         1 TEMP              0 ****  ****    0 ROOT
