@<TRIPOS>MOLECULE
JTS
   31    33     1     0     0
SMALL
bcc


@<TRIPOS>ATOM
      1 C22          0.0000     0.0000     0.0000 cc         1 JTS       0.495300
      2 S21          1.7100     0.0000     0.0000 ss         1 JTS      -0.314300
      3 N23         -0.4510     0.0040     1.2140 nd         1 JTS      -0.564000
      4 C24          0.4290     0.0090     2.1830 cd         1 JTS       0.413600
      5 C26          0.0440     0.0150     3.6390 c3         1 JTS      -0.026400
      6 C20          1.7200     0.0000     1.7620 cc         1 JTS      -0.207000
      7 C1           2.9090     0.0010     2.6200 c          1 JTS       0.629700
      8 O8           2.7860     0.0120     3.8310 o          1 JTS      -0.632100
      9 N9           4.1380    -0.0090     2.0680 ns         1 JTS      -0.025100
     10 C10          5.2710     0.0890     2.8820 ca         1 JTS      -0.106400
     11 C15          5.2710    -0.5070     4.1240 ca         1 JTS      -0.077000
     12 C14          6.4110    -0.4070     4.9370 ca         1 JTS      -0.023000
     13 C16          6.4500    -1.0010     6.2110 ca         1 JTS      -0.083000
     14 C17          7.5720    -0.8850     6.9740 ca         1 JTS      -0.100000
     15 C18          8.6840    -0.1830     6.5120 ca         1 JTS      -0.100000
     16 C19          8.6820     0.4060     5.2850 ca         1 JTS      -0.088000
     17 C13          7.5420     0.3070     4.4670 ca         1 JTS      -0.044000
     18 C12          7.5080     0.9030     3.1950 ca         1 JTS      -0.072000
     19 C11          6.3940     0.7860     2.4230 ca         1 JTS      -0.120000
     20 H1          -0.6180    -0.0020    -0.8900 h5         1 JTS       0.026100
     21 H2           0.4860     0.8750     4.1270 hc         1 JTS       0.026367
     22 H3           0.4020    -0.8920     4.1110 hc         1 JTS       0.026367
     23 H4          -1.0350     0.0650     3.7270 hc         1 JTS       0.026367
     24 H5           4.2410    -0.1050     1.0770 hn         1 JTS       0.173500
     25 H6           4.4560    -1.1600     4.4110 ha         1 JTS       0.140000
     26 H7           5.5930    -1.5500     6.5830 ha         1 JTS       0.110000
     27 H8           7.6000    -1.3440     7.9550 ha         1 JTS       0.101000
     28 H9           9.5640    -0.1060     7.1390 ha         1 JTS       0.100000
     29 H10          9.5540     0.9480     4.9400 ha         1 JTS       0.105000
     30 H11          8.3700     1.4460     2.8260 ha         1 JTS       0.106000
     31 H12          6.3760     1.2400     1.4390 ha         1 JTS       0.103000
@<TRIPOS>BOND
     1     1     2 1   
     2     1     3 2   
     3     1    20 1   
     4     2     6 1   
     5     3     4 1   
     6     4     5 1   
     7     4     6 2   
     8     5    21 1   
     9     5    22 1   
    10     5    23 1   
    11     6     7 1   
    12     7     8 2   
    13     7     9 1   
    14     9    10 1   
    15     9    24 1   
    16    10    11 ar  
    17    10    19 ar  
    18    11    12 ar  
    19    11    25 1   
    20    12    13 ar  
    21    12    17 ar  
    22    13    14 ar  
    23    13    26 1   
    24    14    15 ar  
    25    14    27 1   
    26    15    16 ar  
    27    15    28 1   
    28    16    17 ar  
    29    16    29 1   
    30    17    18 ar  
    31    18    19 ar  
    32    18    30 1   
    33    19    31 1   
@<TRIPOS>SUBSTRUCTURE
     1 JTS         1 TEMP              0 ****  ****    0 ROOT
