@<TRIPOS>MOLECULE
molecule
   34    36     1     0     0
SMALL
bcc


@<TRIPOS>ATOM
      1 O8           0.0000     0.0000     0.0000 o          1 JTT      -0.588100
      2 C1           1.2170     0.0000     0.0000 c          1 JTT       0.716700
      3 C20          1.9510     0.0000     1.2690 cc         1 JTT      -0.240000
      4 S21          3.7030     0.0080     1.4570 ss         1 JTT      -0.213300
      5 C24          1.4020     0.0010     2.5100 cd         1 JTT       0.462600
      6 C26         -0.0860     0.0010     2.7480 c3         1 JTT      -0.120400
      7 N23          2.2770     0.0010     3.4840 nd         1 JTT      -0.694000
      8 C22          3.5300     0.0030     3.1580 cc         1 JTT       0.484700
      9 C25          4.6740     0.0050     4.1390 c3         1 JTT      -0.118400
     10 N9           1.8910    -0.0060    -1.1680 ns         1 JTT      -0.474100
     11 C10          1.1960    -0.1240    -2.3750 ca         1 JTT       0.066600
     12 C11          0.0310    -0.8980    -2.4310 ca         1 JTT      -0.123000
     13 C12         -0.6650    -1.0300    -3.5910 ca         1 JTT      -0.101000
     14 C13         -0.2150    -0.3840    -4.7560 ca         1 JTT      -0.048000
     15 C14          0.9640     0.4030    -4.7080 ca         1 JTT      -0.017000
     16 C15          1.6620     0.5270    -3.4960 ca         1 JTT      -0.158000
     17 C19         -0.9140    -0.5020    -5.9690 ca         1 JTT      -0.110000
     18 C18         -0.4520     0.1370    -7.0790 ca         1 JTT      -0.132000
     19 C17          0.7070     0.9100    -7.0320 ca         1 JTT      -0.121000
     20 C16          1.4070     1.0530    -5.8730 ca         1 JTT      -0.121000
     21 H1          -0.2820     0.0650     3.8110 hc         1 JTT       0.063367
     22 H2          -0.5320     0.8510     2.2460 hc         1 JTT       0.063367
     23 H3          -0.5140    -0.9150     2.3570 hc         1 JTT       0.063367
     24 H4           5.6080    -0.1260     3.6060 hc         1 JTT       0.062367
     25 H5           4.6920     0.9490     4.6710 hc         1 JTT       0.062367
     26 H6           4.5450    -0.8050     4.8460 hc         1 JTT       0.062367
     27 H7           2.8910     0.0390    -1.1690 hn         1 JTT       0.324500
     28 H8          -0.3180    -1.4030    -1.5380 ha         1 JTT       0.159000
     29 H9          -1.5650    -1.6330    -3.6190 ha         1 JTT       0.137000
     30 H10          2.6250     1.0220    -3.4750 ha         1 JTT       0.132000
     31 H11         -1.8160    -1.0990    -6.0210 ha         1 JTT       0.132000
     32 H12         -0.9910     0.0400    -8.0130 ha         1 JTT       0.128000
     33 H13          1.0530     1.4080    -7.9290 ha         1 JTT       0.128000
     34 H14          2.3070     1.6570    -5.8520 ha         1 JTT       0.131000
@<TRIPOS>BOND
     1    19    20 ar
     2    19    18 ar
     3    20    15 ar
     4    18    17 ar
     5    15    16 ar
     6    15    14 ar
     7    16    11 ar
     8    17    14 ar
     9    14    13 ar
    10    11    10 1
    11    11    12 ar
    12    10     2 1
    13     9     8 1
    14     4     8 1
    15     4     3 1
    16     8     7 2
    17     7     5 1
    18    13    12 ar
    19     3     2 1
    20     3     5 2
    21     2     1 2
    22     5     6 1
    23     6    21 1
    24     6    22 1
    25     6    23 1
    26     9    24 1
    27     9    25 1
    28     9    26 1
    29    10    27 1
    30    12    28 1
    31    13    29 1
    32    16    30 1
    33    17    31 1
    34    18    32 1
    35    19    33 1
    36    20    34 1
@<TRIPOS>SUBSTRUCTURE
     1 JTT         1 TEMP              0 ****  ****    0 ROOT
