@<TRIPOS>MOLECULE
JTU
   44    46     1     0     0
SMALL
bcc


@<TRIPOS>ATOM
      1 C1         -0.0460    0.4330    0.1810 c3        1 JTU     -0.091100
      2 C2          1.4330    0.1540    0.1160 c3        1 JTU     -0.077400
      3 C3          2.0230   -0.1830    1.4820 c3        1 JTU     -0.017400
      4 C4          1.6410   -1.5860    1.9150 c3        1 JTU     -0.085100
      5 C5          3.5120   -0.0270    1.4650 ca        1 JTU     -0.087300
      6 C8          4.1350    0.8620    2.3480 ca        1 JTU     -0.137500
      7 C9          5.5190    1.0150    2.3380 ca        1 JTU     -0.104500
      8 C6          4.3000   -0.7640    0.5740 ca        1 JTU     -0.137500
      9 C7          5.6850   -0.6180    0.5640 ca        1 JTU     -0.104500
     10 C10         6.3050    0.2790    1.4430 cp        1 JTU     -0.118500
     11 C11         7.7780    0.4300    1.4410 cp        1 JTU      0.464800
     12 N1          8.5000   -0.6780    1.6350 nb        1 JTU     -0.694000
     13 C12         9.8690   -0.5590    1.6620 ca        1 JTU      0.393600
     14 C13        10.6750   -1.7280    1.8740 ca        1 JTU     -0.187300
     15 C14        12.0390   -1.6340    1.9270 ca        1 JTU     -0.115000
     16 C15        12.6820   -0.3770    1.7810 ca        1 JTU     -0.060900
     17 BR1        14.5560   -0.3110    1.8820 br        1 JTU     -0.131100
     18 C16        11.9460    0.7640    1.5730 ca        1 JTU     -0.030000
     19 C17        10.5270    0.6970    1.4940 ca        1 JTU     -0.133300
     20 C18         9.7330    1.8560    1.2520 ca        1 JTU     -0.051600
     21 C19        10.4250    3.2010    1.0140 c         1 JTU      0.907200
     22 O1         10.2610    3.7530   -0.1070 o         1 JTU     -0.811300
     23 O2         11.1280    3.6670    1.9520 o         1 JTU     -0.811300
     24 C20         8.3530    1.7300    1.2270 ca        1 JTU     -0.182600
     25 C21         7.4890    2.9040    0.9710 c3        1 JTU     -0.057800
     26 H1         -0.6060   -0.4610    0.5480 hc        1 JTU      0.028700
     27 H2         -0.4320    0.6970   -0.8330 hc        1 JTU      0.028700
     28 H3         -0.2580    1.2860    0.8710 hc        1 JTU      0.028700
     29 H4          1.6290   -0.6940   -0.5920 hc        1 JTU      0.044700
     30 H5          1.9610    1.0560   -0.2940 hc        1 JTU      0.044700
     31 H6          1.5940    0.5420    2.2330 hc        1 JTU      0.046700
     32 H7          2.0630   -1.8050    2.9250 hc        1 JTU      0.032700
     33 H8          2.0390   -2.3410    1.1960 hc        1 JTU      0.032700
     34 H9          0.5300   -1.6890    1.9620 hc        1 JTU      0.032700
     35 H10         3.5300    1.4470    3.0560 ha        1 JTU      0.122000
     36 H11         6.0030    1.7200    3.0310 ha        1 JTU      0.143500
     37 H12         3.8200   -1.4670   -0.1240 ha        1 JTU      0.122000
     38 H13         6.2980   -1.2090   -0.1330 ha        1 JTU      0.143500
     39 H14        10.1780   -2.7020    1.9950 ha        1 JTU      0.134000
     40 H15        12.6480   -2.5360    2.0870 ha        1 JTU      0.126000
     41 H16        12.4110    1.7660    1.4820 ha        1 JTU      0.196000
     42 H18         7.2270    3.4050    1.9370 hc        1 JTU      0.051033
     43 H19         8.0310    3.6460    0.3260 hc        1 JTU      0.051033
     44 H20         6.5400    2.6060    0.4600 hc        1 JTU      0.051033
@<TRIPOS>BOND
     1    1    2 1   
     2    1   26 1   
     3    1   27 1   
     4    1   28 1   
     5    2    3 1   
     6    2   29 1   
     7    2   30 1   
     8    3    4 1   
     9    3    5 1   
    10    3   31 1   
    11    4   32 1   
    12    4   33 1   
    13    4   34 1   
    14    5    6 ar  
    15    5    8 ar  
    16    6    7 ar  
    17    6   35 1   
    18    7   10 ar  
    19    7   36 1   
    20    8    9 ar  
    21    8   37 1   
    22    9   10 ar  
    23    9   38 1   
    24   10   11 1   
    25   11   12 ar  
    26   11   24 ar  
    27   12   13 ar  
    28   13   14 ar  
    29   13   19 ar  
    30   14   15 ar  
    31   14   39 1   
    32   15   16 ar  
    33   15   40 1   
    34   16   17 1   
    35   16   18 ar  
    36   18   19 ar  
    37   18   41 1   
    38   19   20 ar  
    39   20   21 1   
    40   20   24 ar  
    41   21   22 1   
    42   21   23 1   
    43   24   25 1   
    44   25   42 1   
    45   25   43 1   
    46   25   44 1   
@<TRIPOS>SUBSTRUCTURE
     1 JTU         1 TEMP              0 ****  ****    0 ROOT
