@<TRIPOS>MOLECULE
molecule
   44    46     1     0     0
SMALL
bcc


@<TRIPOS>ATOM
      1 C1           0.0000     0.0000     0.0000 c3         1 JTU      -0.093100
      2 C2           1.5300     0.0000     0.0000 c3         1 JTU      -0.076400
      3 C3           2.0400     0.0000     1.4430 c3         1 JTU      -0.025400
      4 C4           1.6350    -1.3080     2.1270 c3         1 JTU      -0.084100
      5 C5           3.5420     0.1230     1.4450 ca         1 JTU      -0.086300
      6 C8           4.1440     1.1970     2.0750 ca         1 JTU      -0.141000
      7 C9           5.5190     1.3160     2.0800 ca         1 JTU      -0.103000
      8 C6           4.3130    -0.8410     0.8210 ca         1 JTU      -0.141000
      9 C7           5.6890    -0.7330     0.8180 ca         1 JTU      -0.103000
     10 C10          6.3020     0.3500     1.4480 cp         1 JTU      -0.130500
     11 C11          7.7790     0.4710     1.4490 cp         1 JTU       0.501800
     12 N1           8.5060    -0.6230     1.5160 nb         1 JTU      -0.728000
     13 C12          9.8400    -0.5960     1.5220 ca         1 JTU       0.427600
     14 C13         10.5910    -1.7840     1.5950 ca         1 JTU      -0.186300
     15 C14         11.9510    -1.7230     1.5980 ca         1 JTU      -0.110000
     16 C15         12.6170    -0.5000     1.5310 ca         1 JTU      -0.052900
     17 Br1         14.5080    -0.4660     1.5390 br         1 JTU      -0.135100
     18 C16         11.9210     0.6720     1.4600 ca         1 JTU      -0.026000
     19 C17         10.5230     0.6450     1.4530 ca         1 JTU      -0.150300
     20 C18          9.7350     1.8760     1.3790 ca         1 JTU      -0.001600
     21 C19         10.3860     3.2020     1.3050 c          1 JTU       0.876200
     22 O1          10.6580     3.6850     0.2250 o          1 JTU      -0.815300
     23 O2          10.6760     3.8730     2.4360 o          1 JTU      -0.815300
     24 C20          8.3530     1.7500     1.3720 ca         1 JTU      -0.213600
     25 C21          7.4770     2.9720     1.2900 c3         1 JTU      -0.041800
     26 H1          -0.3610     0.6430     0.7930 hc         1 JTU       0.029033
     27 H2          -0.3610     0.3650    -0.9540 hc         1 JTU       0.029033
     28 H3          -0.3610    -1.0090     0.1610 hc         1 JTU       0.029033
     29 H4           1.8910     0.8850    -0.5110 hc         1 JTU       0.045200
     30 H5           1.8910    -0.8840    -0.5110 hc         1 JTU       0.045200
     31 H6           1.6090     0.8370     1.9790 hc         1 JTU       0.050700
     32 H7           1.7060    -2.1230     1.4170 hc         1 JTU       0.033033
     33 H8           2.2960    -1.4980     2.9630 hc         1 JTU       0.033033
     34 H9           0.6150    -1.2280     2.4830 hc         1 JTU       0.033033
     35 H10          3.5350     1.9470     2.5660 ha         1 JTU       0.122000
     36 H11          5.9890     2.1580     2.5720 ha         1 JTU       0.151500
     37 H12          3.8370    -1.6830     0.3320 ha         1 JTU       0.122000
     38 H13          6.2930    -1.4870     0.3280 ha         1 JTU       0.151500
     39 H14         10.0890    -2.7420     1.6470 ha         1 JTU       0.134000
     40 H15         12.5250    -2.6400     1.6530 ha         1 JTU       0.125000
     41 H16         12.4480     1.6170     1.4080 ha         1 JTU       0.178000
     42 H18          7.1910     3.2800     2.2890 hc         1 JTU       0.048033
     43 H19          6.5890     2.7420     0.7150 hc         1 JTU       0.048033
     44 H20          8.0220     3.7750     0.8080 hc         1 JTU       0.048033
@<TRIPOS>BOND
     1     1     2 1
     2    14    15 ar
     3    14    13 ar
     4    15    16 ar
     5     2     3 1
     6     8     9 ar
     7     8     5 ar
     8     9    10 ar
     9     3     5 1
    10     3     4 1
    11    12    13 ar
    12    12    11 ar
    13    13    19 ar
    14    16    17 1
    15    16    18 ar
    16     5     6 ar
    17    10    11 1
    18    10     7 ar
    19    11    24 ar
    20     6     7 ar
    21    19    18 ar
    22    19    20 ar
    23    24    20 ar
    24    24    25 1
    25    20    21 1
    26    21    22 1
    27    21    23 1
    28     1    26 1
    29     1    27 1
    30     1    28 1
    31     2    29 1
    32     2    30 1
    33     3    31 1
    34     4    32 1
    35     4    33 1
    36     4    34 1
    37     6    35 1
    38     7    36 1
    39     8    37 1
    40     9    38 1
    41    14    39 1
    42    15    40 1
    43    18    41 1
    44    25    42 1
    45    25    43 1
    46    25    44 1
@<TRIPOS>SUBSTRUCTURE
     1 JTU         1 TEMP              0 ****  ****    0 ROOT
