@<TRIPOS>MOLECULE
JTY
   25    26     1     0     0
SMALL
bcc


@<TRIPOS>ATOM
      1 C2           0.0000     0.0000     0.0000 cc         1 JTY       0.095200
      2 C3           1.3770     0.0000     0.0000 cd         1 JTY       0.232800
      3 N4           1.9270     0.0000     1.2180 nd         1 JTY      -0.438000
      4 C5           1.1300     0.0000     2.2250 cc         1 JTY       0.392300
      5 C6           2.1710    -0.0000    -1.2280 c          1 JTY       0.897100
      6 O11         -2.7630    -1.0210    -0.0020 o          1 JTY      -0.593800
      7 C13         -2.9030     1.5250    -0.1810 ca         1 JTY      -0.158500
      8 C14         -2.9680     1.6160     1.1960 ca         1 JTY       0.010500
      9 O8           3.5180    -0.0000    -1.1610 o          1 JTY      -0.870300
     10 O7           1.6150    -0.0000    -2.3120 o          1 JTY      -0.870300
     11 S1          -0.5420     0.0080     1.6760 ss         1 JTY      -0.449300
     12 N9          -0.8120    -0.0010    -1.1170 nu         1 JTY      -0.320500
     13 S10         -2.4590    -0.0000    -0.9420 sy         1 JTY       1.012200
     14 O12         -3.0020     0.0340    -2.2550 o          1 JTY      -0.593800
     15 C18         -3.1920     2.6290    -0.9620 ca         1 JTY       0.010500
     16 C17         -3.5390     3.8260    -0.3640 ca         1 JTY      -0.144000
     17 C16         -3.5980     3.9190     1.0140 ca         1 JTY      -0.057000
     18 C15         -3.3230     2.8110     1.7940 ca         1 JTY      -0.144000
     19 H1           1.4420     0.0010     3.2630 h5         1 JTY       0.009100
     20 H2          -2.7530     0.7480     1.8070 ha         1 JTY       0.136500
     21 H4          -0.4060    -0.0390    -2.0310 hn         1 JTY       0.410800
     22 H5          -3.1430     2.5560    -2.0410 ha         1 JTY       0.136500
     23 H6          -3.7600     4.6930    -0.9750 ha         1 JTY       0.101500
     24 H7          -3.8740     4.8570     1.4820 ha         1 JTY       0.091000
     25 H8          -3.3720     2.8830     2.8740 ha         1 JTY       0.101500
@<TRIPOS>BOND
     1     1     2 2   
     2     1    11 1   
     3     1    12 1   
     4     2     3 1   
     5     2     5 1   
     6     3     4 2   
     7     4    11 1   
     8     4    19 1   
     9     5     9 1   
    10     5    10 1   
    11     6    13 2   
    12     7     8 ar  
    13     7    13 1   
    14     7    15 ar  
    15     8    18 ar  
    16     8    20 1   
    17    12    13 1   
    18    12    21 1   
    19    13    14 2   
    20    15    16 ar  
    21    15    22 1   
    22    16    17 ar  
    23    16    23 1   
    24    17    18 ar  
    25    17    24 1   
    26    18    25 1   
@<TRIPOS>SUBSTRUCTURE
     1 JTY         1 TEMP              0 ****  ****    0 ROOT
