@<TRIPOS>MOLECULE
molecule
   25    26     1     0     0
SMALL
bcc


@<TRIPOS>ATOM
      1 C2           0.0000     0.0000     0.0000 cc         1 JTY       0.147200
      2 C3           1.3770     0.0000     0.0000 cd         1 JTY       0.307800
      3 N4           1.9270     0.0000     1.2180 nd         1 JTY      -0.585000
      4 C5           1.1300     0.0000     2.2250 cc         1 JTY       0.423300
      5 C6           2.1710    -0.0000    -1.2280 c          1 JTY       0.807100
      6 O11         -2.7630    -1.0210    -0.0020 o          1 JTY      -0.639300
      7 C13         -2.9030     1.5250    -0.1810 ca         1 JTY      -0.308500
      8 C14         -2.9680     1.6160     1.1960 ca         1 JTY      -0.016500
      9 O8           3.5180    -0.0000    -1.1610 o          1 JTY      -0.820800
     10 O7           1.6150    -0.0000    -2.3120 o          1 JTY      -0.820800
     11 S1          -0.5420     0.0080     1.6760 ss         1 JTY      -0.392300
     12 N9          -0.8120    -0.0010    -1.1170 nu         1 JTY      -0.705500
     13 S10         -2.4590    -0.0000    -0.9420 sy         1 JTY       1.408200
     14 O12         -3.0020     0.0340    -2.2550 o          1 JTY      -0.639300
     15 C18         -3.1920     2.6290    -0.9620 ca         1 JTY      -0.016500
     16 C17         -3.5390     3.8260    -0.3640 ca         1 JTY      -0.159500
     17 C16         -3.5980     3.9190     1.0140 ca         1 JTY      -0.082000
     18 C15         -3.3230     2.8110     1.7940 ca         1 JTY      -0.159500
     19 H1           1.4420     0.0010     3.2630 h5         1 JTY       0.042100
     20 H2          -2.7530     0.7480     1.8070 ha         1 JTY       0.157000
     21 H4          -0.4060    -0.0390    -2.0310 hn         1 JTY       0.519800
     22 H5          -3.1430     2.5560    -2.0410 ha         1 JTY       0.157000
     23 H6          -3.7600     4.6930    -0.9750 ha         1 JTY       0.127500
     24 H7          -3.8740     4.8570     1.4820 ha         1 JTY       0.121000
     25 H8          -3.3720     2.8830     2.8740 ha         1 JTY       0.127500
@<TRIPOS>BOND
     1     4     3 2
     2     4    11 1
     3     3     2 1
     4    18    17 ar
     5    18     8 ar
     6    11     1 1
     7    17    16 ar
     8     8     7 ar
     9    10     5 1
    10     2     5 1
    11     2     1 2
    12     5     9 1
    13     1    12 1
    14    16    15 ar
    15     7    15 ar
    16     7    13 1
    17    12    13 1
    18    13     6 2
    19    13    14 2
    20     4    19 1
    21     8    20 1
    22    12    21 1
    23    15    22 1
    24    16    23 1
    25    17    24 1
    26    18    25 1
@<TRIPOS>SUBSTRUCTURE
     1 JTY         1 TEMP              0 ****  ****    0 ROOT
