@<TRIPOS>MOLECULE
molecule
   41    41     1     0     0
SMALL
bcc


@<TRIPOS>ATOM
      1 C1           0.0000     0.0000     0.0000 c3         1 JTZ      -0.090600
      2 N1           2.0200     1.1990    -0.6940 n7         1 JTZ      -0.806200
      3 O1           1.7100     3.3320    -2.5520 oh         1 JTZ      -0.581800
      4 C2           1.5300     0.0000     0.0000 c3         1 JTZ       0.161500
      5 O2           3.2500     3.1570    -4.9720 os         1 JTZ      -0.327900
      6 C3           2.0400     0.0000     1.4420 c3         1 JTZ      -0.090600
      7 C4           2.0820     0.9790    -2.1440 c3         1 JTZ       0.149800
      8 C5           2.5970     2.2460    -2.8310 c3         1 JTZ       0.151100
      9 C6           2.6620     2.0170    -4.3420 c3         1 JTZ       0.122400
     10 C7           3.3810     3.1160    -6.3240 ca         1 JTZ       0.146100
     11 C8           2.9540     2.0010    -7.0300 ca         1 JTZ      -0.219000
     12 C9           3.0910     1.9610    -8.4050 ca         1 JTZ      -0.093000
     13 C10          3.6520     3.0310    -9.0760 ca         1 JTZ      -0.165000
     14 C11          4.0790     4.1430    -8.3750 ca         1 JTZ      -0.088000
     15 C12          3.9400     4.1910    -7.0010 ca         1 JTZ      -0.106300
     16 C13          4.3990     5.4060    -6.2380 c3         1 JTZ       0.004100
     17 C14          5.8020     5.1830    -5.7330 c2         1 JTZ      -0.158200
     18 C15          6.7470     6.0400    -6.0260 c2         1 JTZ      -0.232000
     19 H1          -0.3610     1.0050     0.1820 hc         1 JTZ       0.040200
     20 H1A         -0.3610    -0.6600     0.7790 hc         1 JTZ       0.040200
     21 H1B         -0.3610    -0.3450    -0.9610 hc         1 JTZ       0.040200
     22 HN1          2.9310     1.4330    -0.3520 hn         1 JTZ       0.348800
     23 HO1          2.1960     4.0430    -2.1670 ho         1 JTZ       0.408000
     24 H2           1.8900    -0.8850    -0.5100 h1         1 JTZ       0.021700
     25 H3           1.6340    -0.8550     1.9690 hc         1 JTZ       0.040200
     26 H3A          3.1220    -0.0560     1.4420 hc         1 JTZ       0.040200
     27 H3B          1.7250     0.9110     1.9360 hc         1 JTZ       0.040200
     28 H4           1.0930     0.7420    -2.5170 h1         1 JTZ       0.041700
     29 H4A          2.7540     0.1550    -2.3560 h1         1 JTZ       0.041700
     30 H5           3.5860     2.4820    -2.4580 h1         1 JTZ       0.039700
     31 H6           3.2630     1.1400    -4.5490 h1         1 JTZ       0.045200
     32 H6A          1.6600     1.8680    -4.7280 h1         1 JTZ       0.045200
     33 H8           2.5140     1.1620    -6.5050 ha         1 JTZ       0.133000
     34 H9           2.7570     1.0910    -8.9560 ha         1 JTZ       0.129000
     35 H10          3.7600     2.9970   -10.1540 ha         1 JTZ       0.130000
     36 H11          4.5170     4.9820    -8.9030 ha         1 JTZ       0.135000
     37 H13          3.7360     5.5770    -5.3980 hc         1 JTZ       0.057700
     38 H13A         4.3840     6.2700    -6.8910 hc         1 JTZ       0.057700
     39 H14          6.0280     4.3130    -5.1280 ha         1 JTZ       0.127000
     40 H15          7.7550     5.8800    -5.6640 ha         1 JTZ       0.110500
     41 H15A         6.5210     6.9100    -6.6310 ha         1 JTZ       0.110500
@<TRIPOS>BOND
     1     1     4 1
     2     2     4 1
     3     2     7 1
     4     3     8 1
     5     4     6 1
     6     5     9 1
     7     5    10 1
     8     7     8 1
     9     8     9 1
    10    10    11 ar
    11    10    15 ar
    12    11    12 ar
    13    12    13 ar
    14    13    14 ar
    15    14    15 ar
    16    15    16 1
    17    16    17 1
    18    17    18 2
    19     1    19 1
    20     1    20 1
    21     1    21 1
    22     2    22 1
    23     3    23 1
    24     4    24 1
    25     6    25 1
    26     6    26 1
    27     6    27 1
    28     7    28 1
    29     7    29 1
    30     8    30 1
    31     9    31 1
    32     9    32 1
    33    11    33 1
    34    12    34 1
    35    13    35 1
    36    14    36 1
    37    16    37 1
    38    16    38 1
    39    17    39 1
    40    18    40 1
    41    18    41 1
@<TRIPOS>SUBSTRUCTURE
     1 JTZ         1 TEMP              0 ****  ****    0 ROOT
