@<TRIPOS>MOLECULE
JU2
   19    20     1     0     0
SMALL
bcc


@<TRIPOS>ATOM
      1 Br15         0.0000     0.0000     0.0000 br         1 JU2       0.073900
      2 C8           1.8920     0.0000     0.0000 cc         1 JU2      -0.174200
      3 C7           2.6800     0.0000     1.1130 cd         1 JU2       0.117000
      4 C10          2.2420    -0.0000     2.4770 ch         1 JU2       0.209800
      5 N11          1.8950    -0.0200     3.5590 n1         1 JU2      -0.280800
      6 N9           2.6780    -0.0070    -1.1130 na         1 JU2       0.504900
      7 C5           4.0000    -0.0050    -0.7660 cc         1 JU2      -0.155900
      8 C4           4.0710    -0.0010     0.6320 cd         1 JU2      -0.191600
      9 C3           5.3330    -0.0020     1.2580 c          1 JU2       0.657100
     10 O12          5.4300    -0.0020     2.4730 o          1 JU2      -0.575500
     11 N6           5.1380    -0.0100    -1.4760 nc         1 JU2      -0.359100
     12 C1           6.3100    -0.0080    -0.8830 cd         1 JU2      -0.050200
     13 N13          7.4450    -0.0130    -1.6550 nz         1 JU2       0.189400
     14 N2           6.4360    -0.0020     0.4740 ns         1 JU2       0.028600
     15 HN9          2.5310     0.0120    -2.1020 hn         1 JU2       0.138700
     16 HN13         7.1290    -0.1690    -2.5920 hn         1 JU2       0.235133
     17 HN1A         8.0650    -0.5980    -1.1310 hn         1 JU2       0.235133
     18 HN2          7.4310     0.0800     0.5520 hn         1 JU2       0.163500
     19 H133         7.7740     0.9060    -1.4340 hn         1 JU2       0.235133
@<TRIPOS>BOND
     1     1     2 1   
     2     2     3 2   
     3     2     6 1   
     4     3     4 1   
     5     3     8 1   
     6     4     5 3   
     7     6     7 1   
     8     6    15 1   
     9     7     8 2   
    10     7    11 1   
    11     8     9 1   
    12     9    10 2   
    13     9    14 1   
    14    11    12 2   
    15    12    13 1   
    16    12    14 1   
    17    13    16 1   
    18    13    17 1   
    19    13    19 1   
    20    14    18 1   
@<TRIPOS>SUBSTRUCTURE
     1 JU2         1 TEMP              0 ****  ****    0 ROOT
