@<TRIPOS>MOLECULE
JUG
   19    20     1     0     0
SMALL
bcc


@<TRIPOS>ATOM
      1 OAA        -0.0600   -0.0890   -0.0050 o         1 JUG     -0.509100
      2 CAJ         1.1770   -0.0450    0.0010 c         1 JUG      0.562900
      3 CAF         1.9370   -0.0370    1.2660 cc        1 JUG     -0.190200
      4 CAG         3.2720    0.0130    1.2970 cd        1 JUG     -0.172200
      5 CAK         4.1030    0.0620    0.0730 c         1 JUG      0.562900
      6 OAB         5.3350    0.1100    0.1540 o         1 JUG     -0.485100
      7 CAM         3.3760    0.0520   -1.2110 ca        1 JUG     -0.168600
      8 CAL         1.9690    0.0010   -1.2510 ca        1 JUG     -0.100600
      9 CAH         1.2930   -0.0080   -2.4710 ca        1 JUG     -0.122000
     10 CAD         2.0040    0.0340   -3.6740 ca        1 JUG     -0.075000
     11 CAE         3.3900    0.0850   -3.6630 ca        1 JUG     -0.205000
     12 CAI         4.0770    0.0940   -2.4330 ca        1 JUG      0.172100
     13 OAC         5.4440    0.1440   -2.3730 oh        1 JUG     -0.457100
     14 HAF         1.3280   -0.0730    2.1840 ha        1 JUG      0.158000
     15 HAG         3.8350    0.0190    2.2460 ha        1 JUG      0.158000
     16 HAH         0.1910   -0.0490   -2.4760 ha        1 JUG      0.163000
     17 HAD         1.4600    0.0260   -4.6310 ha        1 JUG      0.144000
     18 HAE         3.9570    0.1180   -4.6050 ha        1 JUG      0.143000
     19 HOAC        5.7860    0.1690   -3.2800 ho        1 JUG      0.421000
@<TRIPOS>BOND
     1    1    2 2   
     2    2    3 1   
     3    2    8 1   
     4    3    4 2   
     5    3   14 1   
     6    4    5 1   
     7    4   15 1   
     8    5    6 2   
     9    5    7 1   
    10    7    8 ar  
    11    7   12 ar  
    12    8    9 ar  
    13    9   10 ar  
    14    9   16 1   
    15   10   11 ar  
    16   10   17 1   
    17   11   12 ar  
    18   11   18 1   
    19   12   13 1   
    20   13   19 1   
@<TRIPOS>SUBSTRUCTURE
     1 JUG         1 TEMP              0 ****  ****    0 ROOT
