@<TRIPOS>MOLECULE
molecule
   19    20     1     0     0
SMALL
bcc


@<TRIPOS>ATOM
      1 OAA          0.0000     0.0000     0.0000 o          1 JUG      -0.504100
      2 CAJ          1.2150     0.0000     0.0000 c          1 JUG       0.566900
      3 CAF          1.9550     0.0000     1.2760 cc         1 JUG      -0.190200
      4 CAG          3.2950    -0.0000     1.2920 cd         1 JUG      -0.177200
      5 CAK          4.0690    -0.0010     0.0370 c          1 JUG       0.560900
      6 OAB          5.2830    -0.0010     0.0700 o          1 JUG      -0.479100
      7 CAM          3.3650    -0.0010    -1.2580 ca         1 JUG      -0.162600
      8 CAL          1.9570    -0.0060    -1.2780 ca         1 JUG      -0.117600
      9 CAH          1.2840    -0.0110    -2.4930 ca         1 JUG      -0.099000
     10 CAD          2.0010    -0.0170    -3.6820 ca         1 JUG      -0.093000
     11 CAE          3.3790    -0.0170    -3.6710 ca         1 JUG      -0.175000
     12 CAI          4.0740    -0.0000    -2.4610 ca         1 JUG       0.165100
     13 OAC          5.4290    -0.0010    -2.4530 oh         1 JUG      -0.482100
     14 HAF          1.4080     0.0000     2.2110 ha         1 JUG       0.158000
     15 HAG          3.8170    -0.0000     2.2420 ha         1 JUG       0.158000
     16 HAH          0.2000    -0.0110    -2.5130 ha         1 JUG       0.159000
     17 HAD          1.4720    -0.0300    -4.6280 ha         1 JUG       0.141000
     18 HAE          3.9260    -0.0220    -4.6060 ha         1 JUG       0.144000
     19 HOAC         5.7460     0.7200    -2.9710 ho         1 JUG       0.426000
@<TRIPOS>BOND
     1     1     2 2
     2     9    10 ar
     3     9     8 ar
     4     2     8 1
     5     2     3 1
     6    10    11 ar
     7     8     7 ar
     8     3     4 2
     9    11    12 ar
    10     7    12 ar
    11     7     5 1
    12     4     5 1
    13    12    13 1
    14     5     6 2
    15     3    14 1
    16     4    15 1
    17     9    16 1
    18    10    17 1
    19    11    18 1
    20    13    19 1
@<TRIPOS>SUBSTRUCTURE
     1 JUG         1 TEMP              0 ****  ****    0 ROOT
