@<TRIPOS>MOLECULE
JUO
   30    32     1     0     0
SMALL
bcc


@<TRIPOS>ATOM
      1 N1           0.0000     0.0000     0.0000 nb         1 JUO      -0.709000
      2 C2           1.3270     0.0000     0.0000 ca         1 JUO       0.730900
      3 N3           2.0370     0.0000     1.1150 nb         1 JUO      -0.677000
      4 C4           1.4360     0.0000     2.3050 ca         1 JUO       0.289800
      5 C5           0.0310     0.0000     2.3460 ca         1 JUO      -0.343400
      6 C6          -0.6820     0.0000     1.1410 ca         1 JUO       0.610200
      7 NAA         -2.7050     0.0180     4.7570 n1         1 JUO      -0.395800
      8 NAB          1.9930    -0.0010    -1.2140 nv         1 JUO      -0.541500
      9 CAC         -1.6560    -0.0010     4.3200 cg         1 JUO       0.238500
     10 CAD          0.8380     0.0010     4.4680 cd         1 JUO      -0.250100
     11 CAE         -4.0580     1.4130     0.9090 c3         1 JUO       0.090700
     12 CAF         -4.0580    -1.4130     0.9090 c3         1 JUO       0.090700
     13 CAG         -2.5900     1.2180     0.5180 c3         1 JUO       0.145800
     14 CAH         -2.5900    -1.2180     0.5180 c3         1 JUO       0.145800
     15 NAK          1.8860     0.0010     3.5990 na         1 JUO       0.287900
     16 SAL         -5.0160     0.0000     0.2790 ss         1 JUO      -0.400200
     17 CAN         -0.3330    -0.0000     3.7730 cc         1 JUO       0.046100
     18 NAR         -2.0660     0.0000     1.1400 nh         1 JUO      -0.510300
     19 HNAB         2.7980     0.5800    -1.3440 hn         1 JUO       0.277300
     20 HNAA         1.6530    -0.5600    -1.9710 hn         1 JUO       0.277300
     21 HAD          0.9070     0.0360     5.5480 h4         1 JUO       0.154000
     22 HAE         -4.1130     1.6320     1.9680 h1         1 JUO       0.051950
     23 HAEA        -4.4620     2.2490     0.3500 h1         1 JUO       0.051950
     24 HAF         -4.1130    -1.6320     1.9680 h1         1 JUO       0.051950
     25 HAFA        -4.4620    -2.2490     0.3500 h1         1 JUO       0.051950
     26 HAG         -1.9960     1.9940     0.9870 h1         1 JUO       0.027700
     27 HAGA        -2.5000     1.3020    -0.5590 h1         1 JUO       0.027700
     28 HAH         -1.9960    -1.9940     0.9870 h1         1 JUO       0.027700
     29 HAHA        -2.5000    -1.3020    -0.5590 h1         1 JUO       0.027700
     30 HNAK         2.8440     0.0020     3.8880 hn         1 JUO       0.123700
@<TRIPOS>BOND
     1     1     2 ar  
     2     1     6 ar  
     3     2     3 ar  
     4     2     8 1   
     5     3     4 ar  
     6     4     5 ar  
     7     4    15 1   
     8     5     6 ar  
     9     5    17 1   
    10     6    18 1   
    11     7     9 3   
    12     8    19 1   
    13     8    20 1   
    14     9    17 1   
    15    10    15 1   
    16    10    17 2   
    17    10    21 1   
    18    11    13 1   
    19    11    16 1   
    20    11    22 1   
    21    11    23 1   
    22    12    14 1   
    23    12    16 1   
    24    12    24 1   
    25    12    25 1   
    26    13    18 1   
    27    13    26 1   
    28    13    27 1   
    29    14    18 1   
    30    14    28 1   
    31    14    29 1   
    32    15    30 1   
@<TRIPOS>SUBSTRUCTURE
     1 JUO         1 TEMP              0 ****  ****    0 ROOT
