@<TRIPOS>MOLECULE
molecule
   30    32     1     0     0
SMALL
bcc


@<TRIPOS>ATOM
      1 N1           0.0000     0.0000     0.0000 nb         1 JUO      -0.822000
      2 C2           1.3270     0.0000     0.0000 ca         1 JUO       0.971900
      3 N3           2.0370     0.0000     1.1150 nb         1 JUO      -0.807000
      4 C4           1.4360     0.0000     2.3050 ca         1 JUO       0.527800
      5 C5           0.0310     0.0000     2.3460 ca         1 JUO      -0.334400
      6 C6          -0.6820     0.0000     1.1410 ca         1 JUO       0.714200
      7 NAA         -2.7050     0.0180     4.7570 n1         1 JUO      -0.372800
      8 NAB          1.9930    -0.0010    -1.2140 nv         1 JUO      -1.013500
      9 CAC         -1.6560    -0.0010     4.3200 cg         1 JUO       0.243500
     10 CAD          0.8380     0.0010     4.4680 cd         1 JUO      -0.066100
     11 CAE         -4.0580     1.4130     0.9090 c3         1 JUO       0.023700
     12 CAF         -4.0580    -1.4130     0.9090 c3         1 JUO       0.023700
     13 CAG         -2.5900     1.2180     0.5180 c3         1 JUO       0.161800
     14 CAH         -2.5900    -1.2180     0.5180 c3         1 JUO       0.161800
     15 NAK          1.8860     0.0010     3.5990 na         1 JUO      -0.266100
     16 SAL         -5.0160     0.0000     0.2790 ss         1 JUO      -0.349200
     17 CAN         -0.3330    -0.0000     3.7730 cc         1 JUO      -0.016900
     18 NAR         -2.0660     0.0000     1.1400 nh         1 JUO      -0.710300
     19 HNAB         2.7980     0.5800    -1.3440 hn         1 JUO       0.449800
     20 HNAA         1.6530    -0.5600    -1.9710 hn         1 JUO       0.449800
     21 HAD          0.9070     0.0360     5.5480 h4         1 JUO       0.185000
     22 HAE         -4.1130     1.6320     1.9680 h1         1 JUO       0.077700
     23 HAEA        -4.4620     2.2490     0.3500 h1         1 JUO       0.077700
     24 HAF         -4.1130    -1.6320     1.9680 h1         1 JUO       0.077700
     25 HAFA        -4.4620    -2.2490     0.3500 h1         1 JUO       0.077700
     26 HAG         -1.9960     1.9940     0.9870 h1         1 JUO       0.055450
     27 HAGA        -2.5000     1.3020    -0.5590 h1         1 JUO       0.055450
     28 HAH         -1.9960    -1.9940     0.9870 h1         1 JUO       0.055450
     29 HAHA        -2.5000    -1.3020    -0.5590 h1         1 JUO       0.055450
     30 HNAK         2.8440     0.0020     3.8880 hn         1 JUO       0.313700
@<TRIPOS>BOND
     1     1     2 ar
     2     1     6 ar
     3     2     3 ar
     4     2     8 1
     5     3     4 ar
     6     4     5 ar
     7     4    15 1
     8     5     6 ar
     9     5    17 1
    10     6    18 1
    11     7     9 3
    12     9    17 1
    13    10    15 1
    14    10    17 2
    15    11    13 1
    16    11    16 1
    17    12    14 1
    18    12    16 1
    19    13    18 1
    20    14    18 1
    21     8    19 1
    22     8    20 1
    23    10    21 1
    24    11    22 1
    25    11    23 1
    26    12    24 1
    27    12    25 1
    28    13    26 1
    29    13    27 1
    30    14    28 1
    31    14    29 1
    32    15    30 1
@<TRIPOS>SUBSTRUCTURE
     1 JUO         1 TEMP              0 ****  ****    0 ROOT
