@<TRIPOS>MOLECULE
JUP
   66    69     1     0     0
SMALL
bcc


@<TRIPOS>ATOM
      1 C01          0.0000     0.0000     0.0000 c3         1 JUP      -0.042100
      2 C02          1.5310     0.0000     0.0000 c3         1 JUP       0.197400
      3 O03          2.0070     0.0000     1.3470 os         1 JUP      -0.267900
      4 C04          2.1080     1.2030     1.9640 ca         1 JUP       0.280100
      5 C05          1.6540     2.3490     1.3340 ca         1 JUP      -0.217000
      6 C06          1.7610     3.5810     1.9750 cp         1 JUP       0.138000
      7 C07          1.2740     4.8090     1.3020 cp         1 JUP      -0.241300
      8 C08          0.4260     5.6910     1.9680 ca         1 JUP      -0.033000
      9 C09         -0.0050     6.8350     1.2890 ca         1 JUP      -0.118300
     10 C10         -0.9050     7.8040     1.9500 cc         1 JUP       0.041900
     11 C11         -1.3800     8.9350     1.3890 cd         1 JUP      -0.096000
     12 C12         -2.2060     9.6800     2.2050 cd         1 JUP      -0.114300
     13 C13         -2.8320    10.9750     1.7560 c3         1 JUP       0.225100
     14 N14         -4.1340    10.6990     1.1340 n3         1 JUP      -0.543600
     15 C15         -4.8790    11.9430     0.8970 c3         1 JUP       0.180600
     16 C16         -3.9720     9.9380    -0.1120 c3         1 JUP       0.180600
     17 C17         -2.4100     9.1700     3.4230 cc         1 JUP       0.050900
     18 S18         -1.5310     7.6550     3.5870 ss         1 JUP      -0.281800
     19 C19          0.4260     7.0510    -0.0210 ca         1 JUP       0.453200
     20 N20          1.2280     6.1950    -0.6200 nb         1 JUP      -0.588000
     21 C21          1.6650     5.1030    -0.0140 ca         1 JUP       0.523200
     22 N22          2.5140     4.2370    -0.6870 nv         1 JUP      -0.625500
     23 C23          2.3250     3.6630     3.2500 ca         1 JUP      -0.119000
     24 C24          2.7750     2.5370     3.8770 ca         1 JUP      -0.051000
     25 C25          2.6680     1.2920     3.2480 ca         1 JUP      -0.302600
     26 C26          3.1500     0.0770     3.9290 c          1 JUP       0.357700
     27 N27          3.6880     0.1640     5.1620 nz         1 JUP       0.199600
     28 O28          3.0610    -1.0030     3.3780 o          1 JUP      -0.440100
     29 C29          2.0320    -1.2300    -0.7100 ca         1 JUP      -0.057300
     30 C30          2.3610    -2.3620     0.0140 ca         1 JUP      -0.093000
     31 C31          2.8210    -3.4900    -0.6380 ca         1 JUP      -0.060000
     32 C32          2.9530    -3.4870    -2.0150 ca         1 JUP      -0.089000
     33 C33          2.6230    -2.3570    -2.7390 ca         1 JUP      -0.034000
     34 C34          2.1590    -1.2300    -2.0870 ca         1 JUP      -0.199300
     35 C35          1.7940     0.0010    -2.8770 c3         1 JUP       0.641200
     36 F36          2.0050    -0.2400    -4.2390 f          1 JUP      -0.205633
     37 F37          0.4470     0.3120    -2.6610 f          1 JUP      -0.205633
     38 F38          2.5920     1.0720    -2.4650 f          1 JUP      -0.205633
     39 H011        -0.3610     0.0780     1.0180 hc         1 JUP       0.030367
     40 H012        -0.3610    -0.9210    -0.4420 hc         1 JUP       0.030367
     41 H013        -0.3610     0.8430    -0.5770 hc         1 JUP       0.030367
     42 H02          1.8920     0.8840    -0.5110 h1         1 JUP       0.046700
     43 H05          1.1350     2.2760     0.3860 ha         1 JUP       0.163000
     44 H23          2.4100     4.6240     3.7430 ha         1 JUP       0.136000
     45 H08         -0.0750     5.3800     2.8770 ha         1 JUP       0.125000
     46 H19          0.0940     7.9340    -0.5530 h4         1 JUP      -0.005900
     47 H11         -1.1310     9.2340     0.3780 ha         1 JUP       0.129000
     48 H131        -2.1830    11.4590     1.0360 h1         1 JUP       0.016200
     49 H132        -2.9710    11.6250     2.6110 h1         1 JUP       0.016200
     50 H17         -3.0290     9.6180     4.1910 h4         1 JUP       0.160000
     51 H151        -4.3480    12.5490     0.1730 h1         1 JUP       0.003533
     52 H152        -5.8650    11.7060     0.5150 h1         1 JUP       0.003533
     53 H153        -4.9730    12.4900     1.8270 h1         1 JUP       0.003533
     54 H161        -3.8450     8.8870     0.1200 h1         1 JUP       0.003533
     55 H162        -4.8510    10.0670    -0.7320 h1         1 JUP       0.003533
     56 H163        -3.0990    10.2980    -0.6440 h1         1 JUP       0.003533
     57 H221         3.4510     4.1040    -0.3620 hn         1 JUP       0.282800
     58 H222         2.2120     3.8000    -1.5340 hn         1 JUP       0.282800
     59 H24          3.2090     2.6060     4.8680 ha         1 JUP       0.080000
     60 H271         3.0140     0.5490     5.7930 hn         1 JUP       0.243800
     61 H272         3.9550    -0.7490     5.4740 hn         1 JUP       0.243800
     62 H30          2.2580    -2.3630     1.0920 ha         1 JUP       0.122000
     63 H31          3.0790    -4.3760    -0.0710 ha         1 JUP       0.111000
     64 H32          3.3150    -4.3710    -2.5260 ha         1 JUP       0.119000
     65 H33          2.7240    -2.3560    -3.8180 ha         1 JUP       0.131000
     66 H273         4.4870     0.7670     5.1350 hn         1 JUP       0.243800
@<TRIPOS>BOND
     1     1     2 1   
     2     1    39 1   
     3     1    40 1   
     4     1    41 1   
     5     2     3 1   
     6     2    29 1   
     7     2    42 1   
     8     3     4 1   
     9     4     5 ar  
    10     4    25 ar  
    11     5     6 ar  
    12     5    43 1   
    13     6     7 1   
    14     6    23 ar  
    15     7     8 ar  
    16     7    21 ar  
    17     8     9 ar  
    18     8    45 1   
    19     9    10 1   
    20     9    19 ar  
    21    10    11 2   
    22    10    18 1   
    23    11    12 1   
    24    11    47 1   
    25    12    13 1   
    26    12    17 2   
    27    13    14 1   
    28    13    48 1   
    29    13    49 1   
    30    14    15 1   
    31    14    16 1   
    32    15    51 1   
    33    15    52 1   
    34    15    53 1   
    35    16    54 1   
    36    16    55 1   
    37    16    56 1   
    38    17    18 1   
    39    17    50 1   
    40    19    20 ar  
    41    19    46 1   
    42    20    21 ar  
    43    21    22 1   
    44    22    57 1   
    45    22    58 1   
    46    23    24 ar  
    47    23    44 1   
    48    24    25 ar  
    49    24    59 1   
    50    25    26 1   
    51    26    27 1   
    52    26    28 2   
    53    27    60 1   
    54    27    61 1   
    55    27    66 1   
    56    29    30 ar  
    57    29    34 ar  
    58    30    31 ar  
    59    30    62 1   
    60    31    32 ar  
    61    31    63 1   
    62    32    33 ar  
    63    32    64 1   
    64    33    34 ar  
    65    33    65 1   
    66    34    35 1   
    67    35    36 1   
    68    35    37 1   
    69    35    38 1   
@<TRIPOS>SUBSTRUCTURE
     1 JUP         1 TEMP              0 ****  ****    0 ROOT
