@<TRIPOS>MOLECULE
molecule
   43    44     1     0     0
SMALL
bcc


@<TRIPOS>ATOM
      1 C1           0.0000     0.0000     0.0000 ca         1 JUS      -0.166000
      2 C2           1.3830     0.0000     0.0000 ca         1 JUS      -0.108300
      3 C3           2.0770     0.0000     1.1950 ca         1 JUS      -0.165000
      4 C4           1.3930    -0.0000     2.3950 ca         1 JUS      -0.129000
      5 C5           0.0070    -0.0010     2.4040 ca         1 JUS       0.071100
      6 C6          -0.6920    -0.0000     1.2000 ca         1 JUS       0.129100
      7 C8          -1.1460    -1.1850     4.0440 ca         1 JUS       0.173100
      8 C9          -0.8430    -2.3640     3.3790 ca         1 JUS      -0.214000
      9 C10         -1.3260    -3.5680     3.8510 ca         1 JUS      -0.059000
     10 C11         -2.1150    -3.6090     4.9890 ca         1 JUS      -0.174000
     11 C12         -2.4260    -2.4480     5.6620 ca         1 JUS      -0.059000
     12 C13         -1.9440    -1.2220     5.1960 ca         1 JUS      -0.048000
     13 C14          2.1340    -0.0000    -1.3070 c3         1 JUS      -0.401100
     14 C15          2.3890     1.4410    -1.7500 c3         1 JUS      -0.293400
     15 C16          3.1520     1.4410    -3.0760 c3         1 JUS      -0.003400
     16 C17          3.4060     2.8840    -3.5180 c3         1 JUS      -0.130400
     17 C18          4.1690     2.8830    -4.8450 c3         1 JUS      -0.132400
     18 C19          4.4240     4.3250    -5.2870 c3         1 JUS      -0.088100
     19 CAD         -2.2630    -0.0110     5.8900 cg         1 JUS       0.254800
     20 O17         -2.0520     0.0010     1.2020 oh         1 JUS      -0.516100
     21 NAB         -2.5350     0.9420     6.4460 n1         1 JUS      -0.373800
     22 O7          -0.6680    -0.0010     3.5840 os         1 JUS      -0.230200
     23 H1          -0.1610    -0.0100    -1.0710 ha         1 JUS       0.190000
     24 H3           3.1330    -0.2190     1.3060 ha         1 JUS       0.134000
     25 H141         2.9790    -0.4710    -0.8190 hc         1 JUS       0.148700
     26 H142         2.0220     1.0590    -1.5030 hc         1 JUS       0.148700
     27 H4           2.0020    -0.0400     3.2900 ha         1 JUS       0.146000
     28 H17         -2.4080     0.8090     0.8720 ho         1 JUS       0.429000
     29 H9          -0.0100    -2.1670     2.7140 ha         1 JUS       0.153000
     30 H10         -0.9690    -4.3880     3.2400 ha         1 JUS       0.140000
     31 H11         -2.8770    -4.3780     5.0360 ha         1 JUS       0.139000
     32 H12         -3.2330    -2.5770     6.3730 ha         1 JUS       0.147000
     33 H151         3.4680     1.3570    -1.7190 hc         1 JUS       0.153200
     34 H152         2.0040     1.9480    -0.8730 hc         1 JUS       0.153200
     35 H161         3.8790     0.8450    -2.5380 hc         1 JUS       0.084700
     36 H162         2.4500     0.8920    -3.6920 hc         1 JUS       0.084700
     37 H171         3.8630     3.2870    -2.6230 hc         1 JUS       0.077200
     38 H172         2.6570     3.3370    -4.1550 hc         1 JUS       0.077200
     39 H181         4.7330     1.9580    -4.8020 hc         1 JUS       0.054200
     40 H182         3.3050     2.9660    -5.4920 hc         1 JUS       0.054200
     41 H191         3.9420     4.1500    -6.2420 hc         1 JUS       0.051367
     42 H192         3.5060     4.6940    -4.8460 hc         1 JUS       0.051367
     43 H193         5.3940     4.7420    -5.0470 hc         1 JUS       0.051367
@<TRIPOS>BOND
     1     1     2 ar
     2     1     6 ar
     3     2     3 ar
     4     2    13 1
     5     3     4 ar
     6     4     5 ar
     7     5     6 ar
     8     5    22 1
     9     6    20 1
    10     7     8 ar
    11     7    12 ar
    12     7    22 1
    13     8     9 ar
    14     9    10 ar
    15    10    11 ar
    16    11    12 ar
    17    12    19 1
    18    13    14 1
    19    14    15 1
    20    15    16 1
    21    16    17 1
    22    17    18 1
    23    19    21 3
    24     1    23 1
    25     3    24 1
    26    13    25 1
    27    13    26 1
    28     4    27 1
    29    20    28 1
    30     8    29 1
    31     9    30 1
    32    10    31 1
    33    11    32 1
    34    14    33 1
    35    14    34 1
    36    15    35 1
    37    15    36 1
    38    16    37 1
    39    16    38 1
    40    17    39 1
    41    17    40 1
    42    18    41 1
    43    18    42 1
    44    18    43 1
@<TRIPOS>SUBSTRUCTURE
     1 JUS         1 TEMP              0 ****  ****    0 ROOT
