@<TRIPOS>MOLECULE
JUS
   43    45     1     0     0
SMALL
bcc


@<TRIPOS>ATOM
      1 C1           0.0000     0.0000     0.0000 ca         1 JUS      -0.150000
      2 C2           1.3830     0.0000     0.0000 ca         1 JUS      -0.103000
      3 C3           2.0770     0.0000     1.1950 ca         1 JUS      -0.144000
      4 C4           1.3930    -0.0000     2.3950 ca         1 JUS      -0.104000
      5 C5           0.0070    -0.0010     2.4040 ca         1 JUS       0.020000
      6 C6          -0.6920    -0.0000     1.2000 ca         1 JUS       0.105000
      7 C8          -1.1460    -1.1850     4.0440 ca         1 JUS       0.126000
      8 C9          -0.8430    -2.3640     3.3790 ca         1 JUS      -0.212000
      9 C10         -1.3260    -3.5680     3.8510 ca         1 JUS      -0.019000
     10 C11         -2.1150    -3.6090     4.9890 ca         1 JUS      -0.151000
     11 C12         -2.4260    -2.4480     5.6620 ca         1 JUS      -0.036000
     12 C13         -1.9440    -1.2220     5.1960 ca         1 JUS      -0.007000
     13 C14          2.1340    -0.0000    -1.3070 c3         1 JUS      -0.466000
     14 C15          2.3890     1.4410    -1.7500 DU         1 JUS      -0.209000
     15 C16          3.1520     1.4410    -3.0760 c3         1 JUS      -0.019000
     16 C17          3.4060     2.8840    -3.5180 c3         1 JUS      -0.172000
     17 C18          4.1690     2.8830    -4.8450 c3         1 JUS      -0.174000
     18 C19          4.4240     4.3250    -5.2870 c3         1 JUS      -0.115000
     19 CAD         -2.2630    -0.0110     5.8900 c1         1 JUS      -0.081000
     20 O17         -2.0520     0.0010     1.2020 oh         1 JUS      -0.248000
     21 NAB         -2.5350     0.9420     6.4460 n1         1 JUS      -0.069000
     22 O7          -0.6680    -0.0010     3.5840 os         1 JUS      -0.112000
     23 H1          -0.1610    -0.0100    -1.0710 ha         1 JUS       0.169000
     24 H3           3.1330    -0.2190     1.3060 ha         1 JUS       0.112000
     25 H141         2.9790    -0.4710    -0.8190 hc         1 JUS       0.043000
     26 H142         2.0220     1.0590    -1.5030 DU         1 JUS       0.205000
     27 H4           2.0020    -0.0400     3.2900 ha         1 JUS       0.117000
     28 H17         -2.4080     0.8090     0.8720 ho         1 JUS       0.209000
     29 H9          -0.0100    -2.1670     2.7140 ha         1 JUS       0.136000
     30 H10         -0.9690    -4.3880     3.2400 ha         1 JUS       0.107000
     31 H11         -2.8770    -4.3780     5.0360 ha         1 JUS       0.112000
     32 H12         -3.2330    -2.5770     6.3730 ha         1 JUS       0.114000
     33 H151         3.4680     1.3570    -1.7190 ha         1 JUS       0.163500
     34 H152         2.0040     1.9480    -0.8730 ha         1 JUS       0.163500
     35 H161         3.8790     0.8450    -2.5380 hc         1 JUS       0.089500
     36 H162         2.4500     0.8920    -3.6920 hc         1 JUS       0.089500
     37 H171         3.8630     3.2870    -2.6230 hc         1 JUS       0.094000
     38 H172         2.6570     3.3370    -4.1550 hc         1 JUS       0.094000
     39 H181         4.7330     1.9580    -4.8020 hc         1 JUS       0.073000
     40 H182         3.3050     2.9660    -5.4920 hc         1 JUS       0.073000
     41 H191         3.9420     4.1500    -6.2420 hc         1 JUS       0.058667
     42 H192         3.5060     4.6940    -4.8460 hc         1 JUS       0.058667
     43 H193         5.3940     4.7420    -5.0470 hc         1 JUS       0.058667
@<TRIPOS>BOND
     1     1     2 1   
     2     1     6 1   
     3     1    23 1   
     4     2     3 1   
     5     2    13 1   
     6     3     4 1   
     7     3    24 1   
     8     4     5 1   
     9     4    27 1   
    10     5     6 1   
    11     5    22 1   
    12     6    20 1   
    13     7     8 1   
    14     7    12 1   
    15     7    22 1   
    16     8     9 1   
    17     8    29 1   
    18     9    10 1   
    19     9    30 1   
    20    10    11 1   
    21    10    31 1   
    22    11    12 1   
    23    11    32 1   
    24    12    19 1   
    25    13    14 1   
    26    13    25 1   
    27    13    26 1   
    28    14    15 1   
    29    14    26 1   
    30    14    33 1   
    31    14    34 1   
    32    15    16 1   
    33    15    35 1   
    34    15    36 1   
    35    16    17 1   
    36    16    37 1   
    37    16    38 1   
    38    17    18 1   
    39    17    39 1   
    40    17    40 1   
    41    18    41 1   
    42    18    42 1   
    43    18    43 1   
    44    19    21 1   
    45    20    28 1   
@<TRIPOS>SUBSTRUCTURE
     1 JUS         1 TEMP              0 ****  ****    0 ROOT
