@<TRIPOS>MOLECULE
molecule
   59    62     1     0     0
SMALL
bcc


@<TRIPOS>ATOM
      1 C8           0.0000     0.0000     0.0000 c3         1 JV0      -0.018800
      2 C7           1.5080     0.0000     0.0000 cc         1 JV0      -0.070600
      3 N1           2.3060     0.0000     1.1090 na         1 JV0       0.022800
      4 C6           1.8620    -0.0020     2.4370 ca         1 JV0      -0.016200
      5 C24          2.0740    -1.1140     3.2410 ca         1 JV0      -0.118500
      6 C25          1.6350    -1.1130     4.5500 ca         1 JV0      -0.123000
      7 C3           0.9850    -0.0050     5.0620 ca         1 JV0      -0.074300
      8 C2           0.5070    -0.0060     6.4910 c3         1 JV0      -0.041100
      9 C1           1.6110     0.5400     7.3980 c3         1 JV0      -0.088100
     10 C4           0.7720     1.1050     4.2640 ca         1 JV0      -0.123000
     11 C5           1.2140     1.1110     2.9550 ca         1 JV0      -0.118500
     12 C9           2.2970    -0.0040    -1.0960 cd         1 JV0      -0.175300
     13 C10          1.8280    -0.0100    -2.5280 c3         1 JV0       0.250100
     14 N2           1.4470     1.3530    -2.9250 n3         1 JV0      -0.746600
     15 C11          1.2120     1.4330    -4.3680 c3         1 JV0       0.157300
     16 C12          0.4080     2.6960    -4.6950 c3         1 JV0       0.029200
     17 S1           1.3850     4.1470    -4.1990 ss         1 JV0      -0.376200
     18 C13          1.8250     3.7360    -2.4830 c3         1 JV0       0.029200
     19 C14          2.4330     2.3290    -2.4600 c3         1 JV0       0.157300
     20 C15          3.6330    -0.0020    -0.6620 cd         1 JV0      -0.180000
     21 C16          3.6180     0.0000     0.7010 cc         1 JV0      -0.062300
     22 C17          4.8030    -0.0000     1.5850 ca         1 JV0      -0.017000
     23 C18          6.0430    -0.4130     1.0910 ca         1 JV0      -0.108000
     24 C19          7.1460    -0.4130     1.9170 ca         1 JV0      -0.128500
     25 C23          4.6870     0.4180     2.9120 ca         1 JV0      -0.108000
     26 C22          5.7930     0.4170     3.7320 ca         1 JV0      -0.128500
     27 C20          7.0260    -0.0020     3.2400 ca         1 JV0       0.037900
     28 S2           8.4390    -0.0040     4.2930 ss         1 JV0      -0.256000
     29 C21          7.7740     0.6000     5.8690 c3         1 JV0      -0.019000
     30 H81C        -0.3610     1.0180     0.0840 hc         1 JV0       0.050033
     31 H82C        -0.3610    -0.5810     0.8400 hc         1 JV0       0.050033
     32 H83C        -0.3610    -0.4370    -0.9230 hc         1 JV0       0.050033
     33 H24          2.5830    -1.9830     2.8410 ha         1 JV0       0.148000
     34 H5           1.0470     1.9800     2.3310 ha         1 JV0       0.148000
     35 H25          1.8000    -1.9810     5.1770 ha         1 JV0       0.139500
     36 H21C        -0.3740     0.6180     6.5780 hc         1 JV0       0.050700
     37 H22C         0.2620    -1.0190     6.7890 hc         1 JV0       0.050700
     38 H4           0.2650     1.9730     4.6680 ha         1 JV0       0.139500
     39 H11C         1.2200     0.6780     8.3990 hc         1 JV0       0.037700
     40 H12C         2.4350    -0.1630     7.4260 hc         1 JV0       0.037700
     41 H13C         1.9590     1.4900     7.0120 hc         1 JV0       0.037700
     42 H101         0.9720    -0.6670    -2.6250 h1         1 JV0       0.038700
     43 H102         2.6280    -0.3620    -3.1680 h1         1 JV0       0.038700
     44 H15          4.5120    -0.0030    -1.2940 ha         1 JV0       0.152000
     45 H111         2.1630     1.4700    -4.8850 h1         1 JV0       0.049200
     46 H112         0.6560     0.5610    -4.6900 h1         1 JV0       0.049200
     47 H141         2.7320     2.0840    -1.4480 h1         1 JV0       0.049200
     48 H142         3.2980     2.3030    -3.1120 h1         1 JV0       0.049200
     49 H121        -0.5260     2.6830    -4.1470 h1         1 JV0       0.073450
     50 H122         0.2120     2.7360    -5.7590 h1         1 JV0       0.073450
     51 H131         2.5490     4.4510    -2.1120 h1         1 JV0       0.073450
     52 H132         0.9350     3.7560    -1.8650 h1         1 JV0       0.073450
     53 H18          6.1370    -0.7330     0.0600 ha         1 JV0       0.142000
     54 H23          3.7280     0.7440     3.2950 ha         1 JV0       0.142000
     55 H19          8.1070    -0.7350     1.5350 ha         1 JV0       0.137000
     56 H22          5.7030     0.7390     4.7630 ha         1 JV0       0.137000
     57 H211         7.0090    -0.0810     6.2230 h1         1 JV0       0.065033
     58 H212         7.3430     1.5840     5.7260 h1         1 JV0       0.065033
     59 H213         8.5720     0.6580     6.5990 h1         1 JV0       0.065033
@<TRIPOS>BOND
     1     1     2 1
     2     2     3 1
     3     2    12 2
     4     3     4 1
     5     3    21 1
     6     4     5 ar
     7     4    11 ar
     8     5     6 ar
     9     6     7 ar
    10     7     8 1
    11     7    10 ar
    12     8     9 1
    13    10    11 ar
    14    12    13 1
    15    12    20 1
    16    13    14 1
    17    14    15 1
    18    14    19 1
    19    15    16 1
    20    16    17 1
    21    17    18 1
    22    18    19 1
    23    20    21 2
    24    21    22 1
    25    22    23 ar
    26    22    25 ar
    27    23    24 ar
    28    24    27 ar
    29    25    26 ar
    30    26    27 ar
    31    27    28 1
    32    28    29 1
    33     1    30 1
    34     1    31 1
    35     1    32 1
    36     5    33 1
    37    11    34 1
    38     6    35 1
    39     8    36 1
    40     8    37 1
    41    10    38 1
    42     9    39 1
    43     9    40 1
    44     9    41 1
    45    13    42 1
    46    13    43 1
    47    20    44 1
    48    15    45 1
    49    15    46 1
    50    19    47 1
    51    19    48 1
    52    16    49 1
    53    16    50 1
    54    18    51 1
    55    18    52 1
    56    23    53 1
    57    25    54 1
    58    24    55 1
    59    26    56 1
    60    29    57 1
    61    29    58 1
    62    29    59 1
@<TRIPOS>SUBSTRUCTURE
     1 JV0         1 TEMP              0 ****  ****    0 ROOT
