@<TRIPOS>MOLECULE
JV0
   59    62     1     0     0
SMALL
bcc


@<TRIPOS>ATOM
      1 C8           0.0000     0.0000     0.0000 c3         1 JV0       0.102200
      2 C7           1.5080     0.0000     0.0000 cc         1 JV0      -0.283600
      3 N1           2.3060     0.0000     1.1090 na         1 JV0       0.574800
      4 C6           1.8620    -0.0020     2.4370 ca         1 JV0      -0.200200
      5 C24          2.0740    -1.1140     3.2410 ca         1 JV0      -0.076500
      6 C25          1.6350    -1.1130     4.5500 ca         1 JV0      -0.096000
      7 C3           0.9850    -0.0050     5.0620 ca         1 JV0      -0.069300
      8 C2           0.5070    -0.0060     6.4910 c3         1 JV0       0.025900
      9 C1           1.6110     0.5400     7.3980 c3         1 JV0       0.009900
     10 C4           0.7720     1.1050     4.2640 ca         1 JV0      -0.096000
     11 C5           1.2140     1.1110     2.9550 ca         1 JV0      -0.076500
     12 C9           2.2970    -0.0040    -1.0960 cd         1 JV0      -0.179300
     13 C10          1.8280    -0.0100    -2.5280 c3         1 JV0       0.258100
     14 N2           1.4470     1.3530    -2.9250 n3         1 JV0      -0.549600
     15 C11          1.2120     1.4330    -4.3680 c3         1 JV0       0.133800
     16 C12          0.4080     2.6960    -4.6950 c3         1 JV0       0.097200
     17 S1           1.3850     4.1470    -4.1990 ss         1 JV0      -0.423200
     18 C13          1.8250     3.7360    -2.4830 c3         1 JV0       0.097200
     19 C14          2.4330     2.3290    -2.4600 c3         1 JV0       0.133800
     20 C15          3.6330    -0.0020    -0.6620 cd         1 JV0      -0.152000
     21 C16          3.6180     0.0000     0.7010 cc         1 JV0      -0.263300
     22 C17          4.8030    -0.0000     1.5850 ca         1 JV0       0.016000
     23 C18          6.0430    -0.4130     1.0910 ca         1 JV0      -0.104500
     24 C19          7.1460    -0.4130     1.9170 ca         1 JV0      -0.091500
     25 C23          4.6870     0.4180     2.9120 ca         1 JV0      -0.104500
     26 C22          5.7930     0.4170     3.7320 ca         1 JV0      -0.091500
     27 C20          7.0260    -0.0020     3.2400 ca         1 JV0       0.047900
     28 S2           8.4390    -0.0040     4.2930 ss         1 JV0      -0.335000
     29 C21          7.7740     0.6000     5.8690 c3         1 JV0       0.108000
     30 H81C        -0.3610     1.0180     0.0840 hc         1 JV0       0.011033
     31 H82C        -0.3610    -0.5810     0.8400 hc         1 JV0       0.011033
     32 H83C        -0.3610    -0.4370    -0.9230 hc         1 JV0       0.011033
     33 H24          2.5830    -1.9830     2.8410 ha         1 JV0       0.120000
     34 H5           1.0470     1.9800     2.3310 ha         1 JV0       0.120000
     35 H25          1.8000    -1.9810     5.1770 ha         1 JV0       0.114000
     36 H21C        -0.3740     0.6180     6.5780 hc         1 JV0       0.019700
     37 H22C         0.2620    -1.0190     6.7890 hc         1 JV0       0.019700
     38 H4           0.2650     1.9730     4.6680 ha         1 JV0       0.114000
     39 H11C         1.2200     0.6780     8.3990 hc         1 JV0       0.004033
     40 H12C         2.4350    -0.1630     7.4260 hc         1 JV0       0.004033
     41 H13C         1.9590     1.4900     7.0120 hc         1 JV0       0.004033
     42 H101         0.9720    -0.6670    -2.6250 h1         1 JV0       0.010200
     43 H102         2.6280    -0.3620    -3.1680 h1         1 JV0       0.010200
     44 H15          4.5120    -0.0030    -1.2940 ha         1 JV0       0.132000
     45 H111         2.1630     1.4700    -4.8850 h1         1 JV0       0.028950
     46 H112         0.6560     0.5610    -4.6900 h1         1 JV0       0.028950
     47 H141         2.7320     2.0840    -1.4480 h1         1 JV0       0.028950
     48 H142         3.2980     2.3030    -3.1120 h1         1 JV0       0.028950
     49 H121        -0.5260     2.6830    -4.1470 h1         1 JV0       0.048450
     50 H122         0.2120     2.7360    -5.7590 h1         1 JV0       0.048450
     51 H131         2.5490     4.4510    -2.1120 h1         1 JV0       0.048450
     52 H132         0.9350     3.7560    -1.8650 h1         1 JV0       0.048450
     53 H18          6.1370    -0.7330     0.0600 ha         1 JV0       0.120000
     54 H23          3.7280     0.7440     3.2950 ha         1 JV0       0.120000
     55 H19          8.1070    -0.7350     1.5350 ha         1 JV0       0.115500
     56 H22          5.7030     0.7390     4.7630 ha         1 JV0       0.115500
     57 H211         7.0090    -0.0810     6.2230 h1         1 JV0       0.035700
     58 H212         7.3430     1.5840     5.7260 h1         1 JV0       0.035700
     59 H213         8.5720     0.6580     6.5990 h1         1 JV0       0.035700
@<TRIPOS>BOND
     1     1     2 1   
     2     1    30 1   
     3     1    31 1   
     4     1    32 1   
     5     2     3 1   
     6     2    12 2   
     7     3     4 1   
     8     3    21 1   
     9     4     5 ar  
    10     4    11 ar  
    11     5     6 ar  
    12     5    33 1   
    13     6     7 ar  
    14     6    35 1   
    15     7     8 1   
    16     7    10 ar  
    17     8     9 1   
    18     8    36 1   
    19     8    37 1   
    20     9    39 1   
    21     9    40 1   
    22     9    41 1   
    23    10    11 ar  
    24    10    38 1   
    25    11    34 1   
    26    12    13 1   
    27    12    20 1   
    28    13    14 1   
    29    13    42 1   
    30    13    43 1   
    31    14    15 1   
    32    14    19 1   
    33    15    16 1   
    34    15    45 1   
    35    15    46 1   
    36    16    17 1   
    37    16    49 1   
    38    16    50 1   
    39    17    18 1   
    40    18    19 1   
    41    18    51 1   
    42    18    52 1   
    43    19    47 1   
    44    19    48 1   
    45    20    21 2   
    46    20    44 1   
    47    21    22 1   
    48    22    23 ar  
    49    22    25 ar  
    50    23    24 ar  
    51    23    53 1   
    52    24    27 ar  
    53    24    55 1   
    54    25    26 ar  
    55    25    54 1   
    56    26    27 ar  
    57    26    56 1   
    58    27    28 1   
    59    28    29 1   
    60    29    57 1   
    61    29    58 1   
    62    29    59 1   
@<TRIPOS>SUBSTRUCTURE
     1 JV0         1 TEMP              0 ****  ****    0 ROOT
