@<TRIPOS>MOLECULE
JVE
   34    37     1     0     0
SMALL
bcc


@<TRIPOS>ATOM
      1 C8           0.0000     0.0000     0.0000 c3         1 JVE       0.189000
      2 N9           1.4680     0.0000     0.0000 n7         1 JVE      -0.559200
      3 C10          1.9730     0.0000     1.3810 c3         1 JVE       0.049800
      4 C11          1.4340    -1.2070     2.0990 c          1 JVE       0.634300
      5 C12         -0.5110    -1.2330     0.7110 c2         1 JVE       0.026800
      6 C13          0.2020    -1.7780     1.7220 ce         1 JVE      -0.291400
      7 C14         -0.2540    -2.9920     2.4970 c3         1 JVE       0.198100
      8 O15          2.0680    -1.6950     3.0130 o          1 JVE      -0.568100
      9 C16         -0.7300    -2.5660     3.8620 ca         1 JVE      -0.112300
     10 C17         -0.1130    -3.0630     4.9970 ca         1 JVE       0.133900
     11 C18         -1.7790    -1.6750     3.9800 ca         1 JVE      -0.077000
     12 C19         -0.5510    -2.6710     6.2500 ca         1 JVE      -0.134000
     13 F20          0.9160    -3.9320     4.8820 f          1 JVE      -0.121900
     14 C21         -2.2160    -1.2830     5.2330 ca         1 JVE      -0.120000
     15 C22         -1.6040    -1.7840     6.3670 ca         1 JVE      -0.079000
     16 C24         -1.3790    -3.6680     1.7630 cc         1 JVE      -0.320600
     17 N25         -2.9770    -3.8510     0.2640 nd         1 JVE      -0.644800
     18 N26         -1.7040    -1.7510     0.2770 nu         1 JVE      -0.258700
     19 C27         -1.9220    -4.8810     1.9410 cd         1 JVE      -0.233300
     20 N28         -2.9130    -5.0260     1.0300 na         1 JVE       0.426400
     21 H81C        -0.3590     0.8840     0.5120 h1         1 JVE       0.018700
     22 H82C        -0.3590    -0.0010    -1.0220 h1         1 JVE       0.018700
     23 H9           1.8010     0.8140    -0.4780 hn         1 JVE       0.257800
     24 H101         3.0560    -0.0400     1.3700 h1         1 JVE       0.031200
     25 H102         1.6430     0.8990     1.8870 h1         1 JVE       0.031200
     26 H26         -2.4560    -1.0960     0.1940 hn         1 JVE       0.272800
     27 H14          0.5740    -3.6840     2.5990 hc         1 JVE       0.065700
     28 H18         -2.2590    -1.2820     3.0920 ha         1 JVE       0.102000
     29 H19         -0.0710    -3.0620     7.1390 ha         1 JVE       0.119000
     30 H21         -3.0400    -0.5860     5.3250 ha         1 JVE       0.104000
     31 H22         -1.9480    -1.4760     7.3470 ha         1 JVE       0.105000
     32 H27         -2.1800    -5.1360     2.9610 h4         1 JVE       0.153000
     33 H28         -3.4970    -5.8310     0.9210 hn         1 JVE       0.156700
     34 C23         -2.0610    -3.0370     0.6960 cc         1 JVE       0.426200
@<TRIPOS>BOND
     1     1     2 1   
     2     1     5 1   
     3     1    21 1   
     4     1    22 1   
     5     2     3 1   
     6     2    23 1   
     7     3     4 1   
     8     3    24 1   
     9     3    25 1   
    10     4     6 1   
    11     4     8 2   
    12     5     6 2   
    13     5    18 1   
    14     6     7 1   
    15     7     9 1   
    16     7    16 1   
    17     7    27 1   
    18     9    10 ar  
    19     9    11 ar  
    20    10    12 ar  
    21    10    13 1   
    22    11    14 ar  
    23    11    28 1   
    24    12    15 ar  
    25    12    29 1   
    26    14    15 ar  
    27    14    30 1   
    28    15    31 1   
    29    16    19 2   
    30    16    34 1   
    31    17    20 1   
    32    17    34 2   
    33    18    26 1   
    34    18    34 1   
    35    19    20 1   
    36    19    32 1   
    37    20    33 1   
@<TRIPOS>SUBSTRUCTURE
     1 JVE         1 TEMP              0 ****  ****    0 ROOT
