@<TRIPOS>MOLECULE
molecule
   53    56     1     0     0
SMALL
bcc


@<TRIPOS>ATOM
      1 C4           0.0000     0.0000     0.0000 ca         1 JVP      -0.150500
      2 C7          -0.7330    -0.0050     3.6850 cc         1 JVP       0.522800
      3 C6           0.0070    -0.0040     2.4010 ca         1 JVP      -0.170500
      4 C9          -1.3200    -0.4000     5.8610 cd         1 JVP       0.259300
      5 C13         -4.6900     0.3700     5.1430 c3         1 JVP      -0.093400
      6 C8          -0.3290    -0.6810     4.9240 cc         1 JVP      -0.419900
      7 C18         -4.7530     3.8250     7.3770 c1         1 JVP       0.361600
      8 C26          1.3450     2.2430    -1.4920 ca         1 JVP      -0.163000
      9 C1           1.4010    -0.0110     2.3970 ca         1 JVP      -0.060000
     10 C2           2.0860     0.0000     1.2010 ca         1 JVP      -0.150500
     11 C3           1.3890     0.0000     0.0000 ca         1 JVP       0.148100
     12 C5          -0.6910     0.0010     1.1930 ca         1 JVP      -0.060000
     13 N10         -2.2460     0.3690     5.2550 na         1 JVP       0.074400
     14 N11         -1.8680     0.6050     3.9310 nd         1 JVP      -0.472800
     15 C12         -3.4600     0.8870     5.8920 c3         1 JVP       0.046000
     16 C14         -5.9590     0.8840     5.8270 c3         1 JVP      -0.102400
     17 C15         -5.9740     2.4150     5.7820 c3         1 JVP       0.248800
     18 N16         -4.7250     2.9180     6.3700 n3         1 JVP      -0.674200
     19 C17         -3.4470     2.4180     5.8480 c3         1 JVP       0.247800
     20 N19         -4.7910     4.5950     8.2120 n1         1 JVP      -0.374800
     21 N20         -1.3530    -0.8380     7.1690 nv         1 JVP      -0.886200
     22 O22          1.4080    -1.4980     3.9190 o          1 JVP      -0.464100
     23 N23          1.1240    -2.7170     6.2620 nz         1 JVP      -0.761400
     24 O24          2.0670    -0.0020    -1.1770 os         1 JVP      -0.233200
     25 C25          1.9900     1.1080    -1.9590 ca         1 JVP       0.069100
     26 C27          1.2640     3.3690    -2.2890 ca         1 JVP      -0.148000
     27 C28          1.8240     3.3650    -3.5550 ca         1 JVP       0.142900
     28 C29          2.4680     2.2330    -4.0250 ca         1 JVP      -0.176000
     29 C30          2.5580     1.1070    -3.2270 ca         1 JVP       0.150900
     30 F31          3.1870     0.0020    -3.6850 f          1 JVP      -0.117900
     31 F32          1.7420     4.4670    -4.3320 f          1 JVP      -0.124900
     32 HC4         -0.5420    -0.0000    -0.9380 ha         1 JVP       0.162500
     33 H13A        -4.7510    -0.7040     5.2700 hc         1 JVP       0.065200
     34 H13B        -4.5810     0.6000     4.0900 hc         1 JVP       0.065200
     35 HC26         0.8720     2.2350    -0.5170 ha         1 JVP       0.150000
     36 HC1          1.9460     0.1110     3.3260 ha         1 JVP       0.151500
     37 HC2          3.1670    -0.0690     1.1970 ha         1 JVP       0.162500
     38 HC5         -1.7730     0.0580     1.1910 ha         1 JVP       0.151500
     39 HC12        -3.5020     0.5580     6.9230 h1         1 JVP       0.069700
     40 H14B        -6.0450     0.4190     6.8020 hc         1 JVP       0.065700
     41 H14A        -6.8170     0.6100     5.2240 hc         1 JVP       0.065700
     42 H15A        -6.8120     2.7750     6.3660 h1         1 JVP       0.068700
     43 H15B        -6.0930     2.7340     4.7530 h1         1 JVP       0.068700
     44 H17B        -2.6410     2.7800     6.4760 h1         1 JVP       0.072200
     45 H17A        -3.2750     2.7380     4.8270 h1         1 JVP       0.072200
     46 H20A        -2.1610    -0.6690     7.7340 hn         1 JVP       0.451300
     47 H20B        -0.5830    -1.3580     7.5420 hn         1 JVP       0.451300
     48 H23B         0.2430    -3.1150     6.5220 hn         1 JVP       0.454800
     49 H23A         1.5990    -2.3930     7.0810 hn         1 JVP       0.454800
     50 HC27         0.7930     4.2680    -1.9100 ha         1 JVP       0.156000
     51 HC29         2.9070     2.2310    -5.0150 ha         1 JVP       0.174000
     52 C21          0.8750    -1.4900     5.1320 c          1 JVP       0.538700
     53 H233         1.6090    -3.3490     5.6550 hn         1 JVP       0.454800
@<TRIPOS>BOND
     1    31    27 1
     2    26    27 ar
     3    26     8 ar
     4    27    28 ar
     5     8    25 ar
     6    23    52 1
     7    28    29 ar
     8    22    52 2
     9    25    29 ar
    10    25    24 1
    11    29    30 1
    12    52     6 1
    13    24    11 1
    14    10    11 ar
    15    10     9 ar
    16    11     1 ar
    17     9     3 ar
    18     6     2 1
    19     6     4 2
    20     1    12 ar
    21     3    12 ar
    22     3     2 1
    23     2    14 2
    24    21     4 1
    25     4    13 1
    26    14    13 1
    27    13    15 1
    28    15    19 1
    29    15     5 1
    30    19    18 1
    31     5    16 1
    32    18     7 1
    33    18    17 1
    34    16    17 1
    35     7    20 3
    36     1    32 1
    37     5    33 1
    38     5    34 1
    39     8    35 1
    40     9    36 1
    41    10    37 1
    42    12    38 1
    43    15    39 1
    44    16    40 1
    45    16    41 1
    46    17    42 1
    47    17    43 1
    48    19    44 1
    49    19    45 1
    50    21    46 1
    51    21    47 1
    52    23    48 1
    53    23    49 1
    54    26    50 1
    55    28    51 1
    56    53    23 1
@<TRIPOS>SUBSTRUCTURE
     1 JVP         1 TEMP              0 ****  ****    0 ROOT
