@<TRIPOS>MOLECULE
molecule
   46    49     1     0     0
SMALL
bcc


@<TRIPOS>ATOM
      1 O            0.0000     0.0000     0.0000 o          1 JVT      -0.592100
      2 C11          1.2160     0.0000     0.0000 c          1 JVT       0.630800
      3 C12          1.9530     0.0000     1.2760 cc         1 JVT       0.283900
      4 N4           3.2590    -0.0000     1.4310 nd         1 JVT      -0.502100
      5 N3           3.5960     0.0010     2.6710 na         1 JVT       0.029900
      6 C18          2.4930    -0.0000     3.4850 ca         1 JVT      -0.082200
      7 C17          2.2920    -0.0020     4.8610 ca         1 JVT      -0.141000
      8 C16          1.0100    -0.0020     5.3630 ca         1 JVT      -0.095000
      9 C15         -0.0860    -0.0030     4.5110 ca         1 JVT      -0.154000
     10 C14          0.0880    -0.0020     3.1550 ca         1 JVT      -0.052000
     11 C13          1.3750     0.0050     2.6260 ca         1 JVT      -0.177900
     12 N2           1.8900    -0.0050    -1.1680 ns         1 JVT      -0.465100
     13 C8           1.1930    -0.1220    -2.3780 ca         1 JVT       0.030600
     14 C7           1.6650     0.5210    -3.5150 ca         1 JVT      -0.119000
     15 C6           0.9790     0.4060    -4.7080 ca         1 JVT      -0.151000
     16 C9           0.0350    -0.8840    -2.4410 ca         1 JVT      -0.119000
     17 C10         -0.6510    -1.0000    -3.6330 ca         1 JVT      -0.151000
     18 C5          -0.1820    -0.3530    -4.7700 ca         1 JVT       0.090600
     19 N1          -0.8780    -0.4690    -5.9780 nh         1 JVT      -0.599000
     20 C2          -2.0710    -1.3130    -5.8200 c3         1 JVT       0.164800
     21 C1          -2.7580    -1.4800    -7.1770 c3         1 JVT       0.160300
     22 C3          -1.2380     0.8530    -6.5080 c3         1 JVT       0.164800
     23 C4          -1.9250     0.6860    -7.8670 c3         1 JVT       0.160300
     24 N           -3.1180    -0.1580    -7.7080 n3         1 JVT      -0.733600
     25 C           -3.8480    -0.2800    -8.9760 c3         1 JVT       0.153100
     26 H2           2.8890     0.0430    -1.1690 hn         1 JVT       0.335500
     27 H3           4.5410     0.0010     3.0000 hn         1 JVT       0.335700
     28 H17          3.1400    -0.0010     5.5340 ha         1 JVT       0.130000
     29 H16          0.8550    -0.0030     6.4350 ha         1 JVT       0.134000
     30 H15         -1.0880    -0.0030     4.9240 ha         1 JVT       0.136000
     31 H14         -0.7710    -0.0030     2.4950 ha         1 JVT       0.159000
     32 H7           2.5710     1.1130    -3.4660 ha         1 JVT       0.145500
     33 H9          -0.3310    -1.3890    -1.5550 ha         1 JVT       0.145500
     34 H6           1.3460     0.9090    -5.5940 ha         1 JVT       0.139000
     35 H10         -1.5560    -1.5940    -3.6820 ha         1 JVT       0.139000
     36 H21C        -1.7770    -2.2850    -5.4430 h1         1 JVT       0.050200
     37 H22C        -2.7560    -0.8420    -5.1250 h1         1 JVT       0.050200
     38 H31C        -1.9150     1.3440    -5.8200 h1         1 JVT       0.050200
     39 H32C        -0.3420     1.4490    -6.6290 h1         1 JVT       0.050200
     40 H11C        -2.0810    -1.9720    -7.8650 h1         1 JVT       0.041950
     41 H12C        -3.6540    -2.0760    -7.0560 h1         1 JVT       0.041950
     42 H41C        -1.2400     0.2140    -8.5610 h1         1 JVT       0.041950
     43 H42C        -2.2190     1.6580    -8.2440 h1         1 JVT       0.041950
     44 HC1         -3.2140    -0.7580    -9.7140 h1         1 JVT       0.032367
     45 HC2         -4.1300     0.7050    -9.3270 h1         1 JVT       0.032367
     46 HC3         -4.7390    -0.8780    -8.8250 h1         1 JVT       0.032367
@<TRIPOS>BOND
     1     1     2 2
     2     2     3 1
     3     2    12 1
     4     3     4 2
     5     3    11 1
     6     4     5 1
     7     5     6 1
     8     6     7 ar
     9     6    11 ar
    10     7     8 ar
    11     8     9 ar
    12     9    10 ar
    13    10    11 ar
    14    12    13 1
    15    13    14 ar
    16    13    16 ar
    17    14    15 ar
    18    15    18 ar
    19    16    17 ar
    20    17    18 ar
    21    18    19 1
    22    19    20 1
    23    19    22 1
    24    20    21 1
    25    21    24 1
    26    22    23 1
    27    23    24 1
    28    24    25 1
    29    12    26 1
    30     5    27 1
    31     7    28 1
    32     8    29 1
    33     9    30 1
    34    10    31 1
    35    14    32 1
    36    16    33 1
    37    15    34 1
    38    17    35 1
    39    20    36 1
    40    20    37 1
    41    22    38 1
    42    22    39 1
    43    21    40 1
    44    21    41 1
    45    23    42 1
    46    23    43 1
    47    25    44 1
    48    25    45 1
    49    25    46 1
@<TRIPOS>SUBSTRUCTURE
     1 JVT         1 TEMP              0 ****  ****    0 ROOT
