@<TRIPOS>MOLECULE
JW7
   45    48     1     0     0
SMALL
bcc


@<TRIPOS>ATOM
      1 CAL          0.0000     0.0000     0.0000 c3         1 JW7      -0.040900
      2 CAJ          1.5310     0.0000     0.0000 c3         1 JW7      -0.018400
      3 CAI          2.0400     0.0000     1.4420 c3         1 JW7      -0.028400
      4 CAK          1.5320     1.2490     2.1640 c3         1 JW7      -0.018400
      5 CAM          0.0010     1.2500     2.1640 c3         1 JW7      -0.040900
      6 CAX         -0.5090     1.2500     0.7220 c3         1 JW7       0.122500
      7 NAQ         -1.9740     1.2500     0.7220 nu         1 JW7      -0.378000
      8 CAT         -2.6650     2.4430     0.8260 cc         1 JW7      -0.000600
      9 CAH         -1.9870     3.6420     0.9310 cd         1 JW7      -0.379200
     10 CAW         -2.7170     4.8320     1.0350 c          1 JW7       0.607700
     11 OAA         -2.1300     5.8990     1.1280 o          1 JW7      -0.692500
     12 NAY         -4.0620     4.8080     1.0330 n          1 JW7       0.293000
     13 CAS         -4.7700     6.0110     1.1380 ca         1 JW7      -0.092400
     14 CAE         -4.4380     7.0860     0.3240 ca         1 JW7      -0.079000
     15 CAC         -5.1390     8.2720     0.4290 ca         1 JW7      -0.097000
     16 CAB         -6.1690     8.3880     1.3430 ca         1 JW7      -0.094000
     17 CAD         -6.5020     7.3200     2.1550 ca         1 JW7      -0.097000
     18 CAF         -5.8090     6.1300     2.0510 ca         1 JW7      -0.079000
     19 NAP         -4.7670     3.6050     0.9280 nd         1 JW7      -0.526300
     20 CAV         -4.1300     2.4590     0.8220 cc         1 JW7       0.333600
     21 CAU         -4.8890     1.1960     0.7050 cc         1 JW7       0.152200
     22 NAN         -6.2500     1.0620     0.6880 na         1 JW7       0.129300
     23 CAG         -6.4910    -0.2720     0.5670 cc         1 JW7       0.193400
     24 NAR         -5.3330    -0.8750     0.5170 nd         1 JW7      -0.318000
     25 NAO         -4.3830    -0.0120     0.5920 nd         1 JW7      -0.336000
     26 HAL1        -0.3600    -0.8840     0.5130 hc         1 JW7       0.024700
     27 HAL2        -0.3600     0.0030    -1.0220 hc         1 JW7       0.024700
     28 HAJ1         1.8900    -0.8860    -0.5090 hc         1 JW7       0.016450
     29 HAJ2         1.8900     0.8860    -0.5090 hc         1 JW7       0.016450
     30 HAX         -0.1440     2.1320     0.2120 h1         1 JW7       0.046700
     31 HAI1         3.1240     0.0020     1.4410 hc         1 JW7       0.015700
     32 HAI2         1.6760    -0.8840     1.9520 hc         1 JW7       0.015700
     33 HAK1         1.8920     2.1320     1.6520 hc         1 JW7       0.016450
     34 HAK2         1.8910     1.2450     3.1860 hc         1 JW7       0.016450
     35 HAM1        -0.3580     2.1370     2.6720 hc         1 JW7       0.024700
     36 HAM2        -0.3590     0.3650     2.6740 hc         1 JW7       0.024700
     37 HAQ         -2.4750     0.3890     0.6310 hn         1 JW7       0.347800
     38 HAH         -0.9170     3.6760     0.7610 ha         1 JW7       0.160000
     39 HAE         -3.6310     6.9950    -0.3930 ha         1 JW7       0.117000
     40 HAF         -6.0700     5.2930     2.6880 ha         1 JW7       0.117000
     41 HAC         -4.8810     9.1110    -0.2060 ha         1 JW7       0.104500
     42 HAB         -6.7160     9.3200     1.4260 ha         1 JW7       0.102000
     43 HAD         -7.3110     7.4150     2.8690 ha         1 JW7       0.104500
     44 HAN         -6.9300     1.7940     0.7510 hn         1 JW7       0.151700
     45 HAG         -7.4630    -0.7470     0.5230 h5         1 JW7       0.037100
@<TRIPOS>BOND
     1     1     2 1   
     2     1     6 1   
     3     1    26 1   
     4     1    27 1   
     5     2     3 1   
     6     2    28 1   
     7     2    29 1   
     8     3     4 1   
     9     3    31 1   
    10     3    32 1   
    11     4     5 1   
    12     4    33 1   
    13     4    34 1   
    14     5     6 1   
    15     5    35 1   
    16     5    36 1   
    17     6     7 1   
    18     6    30 1   
    19     7     8 1   
    20     7    37 1   
    21     8     9 2   
    22     8    20 1   
    23     9    10 1   
    24     9    38 1   
    25    10    11 2   
    26    10    12 1   
    27    12    13 1   
    28    12    19 1   
    29    13    14 ar  
    30    13    18 ar  
    31    14    15 ar  
    32    14    39 1   
    33    15    16 ar  
    34    15    41 1   
    35    16    17 ar  
    36    16    42 1   
    37    17    18 ar  
    38    17    43 1   
    39    18    40 1   
    40    19    20 2   
    41    20    21 1   
    42    21    22 1   
    43    21    25 2   
    44    22    23 1   
    45    22    44 1   
    46    23    24 2   
    47    23    45 1   
    48    24    25 1   
@<TRIPOS>SUBSTRUCTURE
     1 JW7         1 TEMP              0 ****  ****    0 ROOT
