@<TRIPOS>MOLECULE
molecule
   45    48     1     0     0
SMALL
bcc


@<TRIPOS>ATOM
      1 CAL          0.0000     0.0000     0.0000 c3         1 JW7      -0.094900
      2 CAJ          1.5310     0.0000     0.0000 c3         1 JW7      -0.077400
      3 CAI          2.0400     0.0000     1.4420 c3         1 JW7      -0.083400
      4 CAK          1.5320     1.2490     2.1640 c3         1 JW7      -0.077400
      5 CAM          0.0010     1.2500     2.1640 c3         1 JW7      -0.094900
      6 CAX         -0.5090     1.2500     0.7220 c3         1 JW7       0.233500
      7 NAQ         -1.9740     1.2500     0.7220 nu         1 JW7      -0.779000
      8 CAT         -2.6650     2.4430     0.8260 cc         1 JW7       0.139400
      9 CAH         -1.9870     3.6420     0.9310 cd         1 JW7      -0.367200
     10 CAW         -2.7170     4.8320     1.0350 c          1 JW7       0.693700
     11 OAA         -2.1300     5.8990     1.1280 o          1 JW7      -0.642500
     12 NAY         -4.0620     4.8080     1.0330 n          1 JW7      -0.109000
     13 CAS         -4.7700     6.0110     1.1380 ca         1 JW7       0.058600
     14 CAE         -4.4380     7.0860     0.3240 ca         1 JW7      -0.111500
     15 CAC         -5.1390     8.2720     0.4290 ca         1 JW7      -0.123500
     16 CAB         -6.1690     8.3880     1.3430 ca         1 JW7      -0.127000
     17 CAD         -6.5020     7.3200     2.1550 ca         1 JW7      -0.123500
     18 CAF         -5.8090     6.1300     2.0510 ca         1 JW7      -0.111500
     19 NAP         -4.7670     3.6050     0.9280 nd         1 JW7      -0.425300
     20 CAV         -4.1300     2.4590     0.8220 cc         1 JW7       0.324600
     21 CAU         -4.8890     1.1960     0.7050 cc         1 JW7       0.360200
     22 NAN         -6.2500     1.0620     0.6880 na         1 JW7      -0.417700
     23 CAG         -6.4910    -0.2720     0.5670 cc         1 JW7       0.368400
     24 NAR         -5.3330    -0.8750     0.5170 nd         1 JW7      -0.346000
     25 NAO         -4.3830    -0.0120     0.5920 nd         1 JW7      -0.368000
     26 HAL1        -0.3600    -0.8840     0.5130 hc         1 JW7       0.052950
     27 HAL2        -0.3600     0.0030    -1.0220 hc         1 JW7       0.052950
     28 HAJ1         1.8900    -0.8860    -0.5090 hc         1 JW7       0.045200
     29 HAJ2         1.8900     0.8860    -0.5090 hc         1 JW7       0.045200
     30 HAX         -0.1440     2.1320     0.2120 h1         1 JW7       0.063700
     31 HAI1         3.1240     0.0020     1.4410 hc         1 JW7       0.043700
     32 HAI2         1.6760    -0.8840     1.9520 hc         1 JW7       0.043700
     33 HAK1         1.8920     2.1320     1.6520 hc         1 JW7       0.045200
     34 HAK2         1.8910     1.2450     3.1860 hc         1 JW7       0.045200
     35 HAM1        -0.3580     2.1370     2.6720 hc         1 JW7       0.052950
     36 HAM2        -0.3590     0.3650     2.6740 hc         1 JW7       0.052950
     37 HAQ         -2.4750     0.3890     0.6310 hn         1 JW7       0.481800
     38 HAH         -0.9170     3.6760     0.7610 ha         1 JW7       0.176000
     39 HAE         -3.6310     6.9950    -0.3930 ha         1 JW7       0.145500
     40 HAF         -6.0700     5.2930     2.6880 ha         1 JW7       0.145500
     41 HAC         -4.8810     9.1110    -0.2060 ha         1 JW7       0.134000
     42 HAB         -6.7160     9.3200     1.4260 ha         1 JW7       0.131000
     43 HAD         -7.3110     7.4150     2.8690 ha         1 JW7       0.134000
     44 HAN         -6.9300     1.7940     0.7510 hn         1 JW7       0.326700
     45 HAG         -7.4630    -0.7470     0.5230 h5         1 JW7       0.081100
@<TRIPOS>BOND
     1     1     2 1
     2     1     6 1
     3     2     3 1
     4     3     4 1
     5     4     5 1
     6     5     6 1
     7     6     7 1
     8     7     8 1
     9     8     9 2
    10     8    20 1
    11     9    10 1
    12    10    11 2
    13    10    12 1
    14    12    13 1
    15    12    19 1
    16    13    14 ar
    17    13    18 ar
    18    14    15 ar
    19    15    16 ar
    20    16    17 ar
    21    17    18 ar
    22    19    20 2
    23    20    21 1
    24    21    22 1
    25    21    25 2
    26    22    23 1
    27    23    24 2
    28    24    25 1
    29     1    26 1
    30     1    27 1
    31     2    28 1
    32     2    29 1
    33     6    30 1
    34     3    31 1
    35     3    32 1
    36     4    33 1
    37     4    34 1
    38     5    35 1
    39     5    36 1
    40     7    37 1
    41     9    38 1
    42    14    39 1
    43    18    40 1
    44    15    41 1
    45    16    42 1
    46    17    43 1
    47    22    44 1
    48    23    45 1
@<TRIPOS>SUBSTRUCTURE
     1 JW7         1 TEMP              0 ****  ****    0 ROOT
