@<TRIPOS>MOLECULE
molecule
   56    60     1     0     0
SMALL
bcc


@<TRIPOS>ATOM
      1 CAP          0.0000     0.0000     0.0000 c3         1 JWF       0.164300
      2 CAN          1.5300     0.0000     0.0000 c3         1 JWF       0.161300
      3 NBE          2.0180     0.0000     1.3860 n3         1 JWF      -0.734600
      4 CAA          3.4840    -0.0770     1.4290 c3         1 JWF       0.153100
      5 CAO          1.5310     1.1810     2.1130 c3         1 JWF       0.161300
      6 CAQ          0.0000     1.1810     2.1130 c3         1 JWF       0.164300
      7 NBF         -0.4870     1.1810     0.7270 nh         1 JWF      -0.598000
      8 CAY         -1.8850     1.2540     0.6860 ca         1 JWF       0.096600
      9 CAI         -2.5440     2.3010     1.3170 ca         1 JWF      -0.148500
     10 CAG         -3.9210     2.3730     1.2780 ca         1 JWF      -0.126000
     11 CAH         -2.6110     0.2820     0.0110 ca         1 JWF      -0.148500
     12 CAF         -3.9900     0.3540    -0.0290 ca         1 JWF      -0.126000
     13 CAX         -4.6490     1.3990     0.6070 ca         1 JWF       0.106600
     14 NAU         -6.0470     1.4700     0.5660 nu         1 JWF      -0.635400
     15 CBA         -6.8020     0.3250     0.7260 cc         1 JWF       0.149400
     16 CAM         -6.2150    -0.8860     1.0620 cd         1 JWF      -0.366200
     17 CBD         -7.0550    -2.0010     1.2040 c          1 JWF       0.670700
     18 OAB         -6.5790    -3.0860     1.5000 o          1 JWF      -0.630500
     19 NBG         -8.3790    -1.8800     1.0170 n          1 JWF      -0.044000
     20 CAZ         -9.1820    -3.0150     1.1690 ca         1 JWF       0.036600
     21 CAJ        -10.3290    -2.9580     1.9510 ca         1 JWF      -0.095000
     22 CAD        -11.1190    -4.0810     2.0980 ca         1 JWF      -0.118500
     23 CAW        -10.7700    -5.2620     1.4680 ca         1 JWF       0.035400
     24 ClAC       -11.7670    -6.6710     1.6560 cl         1 JWF      -0.102400
     25 CAE         -9.6290    -5.3220     0.6880 ca         1 JWF      -0.118500
     26 CAK         -8.8370    -4.2010     0.5320 ca         1 JWF      -0.095000
     27 NAT         -8.9410    -0.7700     0.7070 nd         1 JWF      -0.425300
     28 CBC         -8.2600     0.3430     0.5510 cc         1 JWF       0.272600
     29 CBB         -8.9550     1.5990     0.1970 cc         1 JWF       0.462200
     30 NAR         -8.3870     2.7730     0.0090 nd         1 JWF      -0.792000
     31 CAL         -9.3150     3.6780    -0.2960 cd         1 JWF       0.579900
     32 NAV        -10.4890     3.1020    -0.3100 nc         1 JWF      -0.533800
     33 NAS        -10.2860     1.7480     0.0030 na         1 JWF      -0.150400
     34 HAP1        -0.3600     0.0320    -1.0210 h1         1 JWF       0.050700
     35 HAP2        -0.3600    -0.8980     0.4880 h1         1 JWF       0.050700
     36 HAN1         1.8900    -0.8860    -0.5080 h1         1 JWF       0.043450
     37 HAN2         1.8900     0.8860    -0.5080 h1         1 JWF       0.043450
     38 HAA1         3.8140    -0.1090     2.4600 h1         1 JWF       0.033367
     39 HAA2         3.8130    -0.9730     0.9160 h1         1 JWF       0.033367
     40 HAA3         3.9050     0.7940     0.9410 h1         1 JWF       0.033367
     41 HAO1         1.8910     2.0780     1.6250 h1         1 JWF       0.043450
     42 HAO2         1.8910     1.1490     3.1350 h1         1 JWF       0.043450
     43 HAQ1        -0.3600     0.2940     2.6220 h1         1 JWF       0.050700
     44 HAQ2        -0.3600     2.0670     2.6220 h1         1 JWF       0.050700
     45 HAI         -1.9770     3.0610     1.8400 ha         1 JWF       0.142500
     46 HAH         -2.0970    -0.5320    -0.4850 ha         1 JWF       0.142500
     47 HAG         -4.4350     3.1880     1.7720 ha         1 JWF       0.144500
     48 HAF         -4.5570    -0.4050    -0.5540 ha         1 JWF       0.144500
     49 HAU         -6.4990     2.3540     0.4410 hn         1 JWF       0.492800
     50 HAM         -5.2140    -0.9060     1.4760 ha         1 JWF       0.190000
     51 HAJ        -10.6030    -2.0340     2.4450 ha         1 JWF       0.154500
     52 HAK         -7.9440    -4.2490    -0.0780 ha         1 JWF       0.154500
     53 HAD        -12.0130    -4.0360     2.7080 ha         1 JWF       0.151500
     54 HAE         -9.3600    -6.2470     0.1940 ha         1 JWF       0.151500
     55 HAS        -10.9870     1.0360     0.0730 hn         1 JWF       0.347700
     56 HAL         -9.1270     4.7250    -0.4990 h5         1 JWF       0.084100
@<TRIPOS>BOND
     1     1     2 1
     2     1     7 1
     3     2     3 1
     4     3     4 1
     5     3     5 1
     6     5     6 1
     7     6     7 1
     8     7     8 1
     9     8     9 ar
    10     8    11 ar
    11     9    10 ar
    12    10    13 ar
    13    11    12 ar
    14    12    13 ar
    15    13    14 1
    16    14    15 1
    17    15    16 2
    18    15    28 1
    19    16    17 1
    20    17    18 2
    21    17    19 1
    22    19    20 1
    23    19    27 1
    24    20    21 ar
    25    20    26 ar
    26    21    22 ar
    27    22    23 ar
    28    23    24 1
    29    23    25 ar
    30    25    26 ar
    31    27    28 2
    32    28    29 1
    33    29    30 2
    34    29    33 1
    35    30    31 1
    36    31    32 2
    37    32    33 1
    38     1    34 1
    39     1    35 1
    40     2    36 1
    41     2    37 1
    42     4    38 1
    43     4    39 1
    44     4    40 1
    45     5    41 1
    46     5    42 1
    47     6    43 1
    48     6    44 1
    49     9    45 1
    50    11    46 1
    51    10    47 1
    52    12    48 1
    53    14    49 1
    54    16    50 1
    55    21    51 1
    56    26    52 1
    57    22    53 1
    58    25    54 1
    59    33    55 1
    60    31    56 1
@<TRIPOS>SUBSTRUCTURE
     1 JWF         1 TEMP              0 ****  ****    0 ROOT
