@<TRIPOS>MOLECULE
JWS
   28    29     1     0     0
SMALL
bcc


@<TRIPOS>ATOM
      1 N1           0.0000     0.0000     0.0000 nb         1 JWS      -0.695000
      2 C2           1.3290     0.0000     0.0000 ca         1 JWS       0.750900
      3 N3           2.0180     0.0010    -1.1960 nv         1 JWS      -0.636000
      4 N4           1.9940     0.0000     1.1500 nb         1 JWS      -0.662000
      5 C5           1.3300     0.0000     2.3030 cp         1 JWS       0.715500
      6 C6           2.0710     0.0000     3.5850 cp         1 JWS      -0.173500
      7 C7           3.4690     0.0000     3.5890 ca         1 JWS       0.152100
      8 O8           4.1520     0.0010     2.4150 oh         1 JWS      -0.446100
      9 C9           4.1560     0.0000     4.7930 ca         1 JWS      -0.167000
     10 C10          3.4630    -0.0010     5.9860 ca         1 JWS      -0.150000
     11 C11          2.0740    -0.0010     5.9900 ca         1 JWS       0.102100
     12 O12          1.3990    -0.0020     7.1690 os         1 JWS      -0.304900
     13 C13          1.3760     0.0050     4.7950 ca         1 JWS      -0.065000
     14 N14         -0.0010     0.0000     2.3020 nb         1 JWS      -0.662000
     15 C15         -0.6650     0.0000     1.1520 ca         1 JWS       0.750900
     16 N16         -2.0450     0.0010     1.1500 nv         1 JWS      -0.636000
     17 C17          2.1810    -0.0020     8.3650 c3         1 JWS       0.243700
     18 HN3          2.2650    -0.8650    -1.6320 hn         1 JWS       0.282550
     19 HN3A         2.2550     0.8680    -1.6370 hn         1 JWS       0.282550
     20 HO8          4.9410     0.5090     2.5100 ho         1 JWS       0.392000
     21 H9           5.2400     0.0010     4.7970 ha         1 JWS       0.111000
     22 H10          4.0050    -0.0010     6.9240 ha         1 JWS       0.118000
     23 H13          0.2930     0.0050     4.7990 ha         1 JWS       0.139000
     24 HN16        -2.5450    -0.8660     1.1370 hn         1 JWS       0.282550
     25 HN1A        -2.5450     0.8680     1.1370 hn         1 JWS       0.282550
     26 H17          2.8050     0.8830     8.3880 h1         1 JWS      -0.003633
     27 H17A         1.5240    -0.0020     9.2270 h1         1 JWS      -0.003633
     28 H17B         2.8070    -0.8860     8.3880 h1         1 JWS      -0.003633
@<TRIPOS>BOND
     1     1     2 ar  
     2     1    15 ar  
     3     2     3 1   
     4     2     4 ar  
     5     3    18 1   
     6     3    19 1   
     7     4     5 ar  
     8     5     6 1   
     9     5    14 ar  
    10     6     7 ar  
    11     6    13 ar  
    12     7     8 1   
    13     7     9 ar  
    14     8    20 1   
    15     9    10 ar  
    16     9    21 1   
    17    10    11 ar  
    18    10    22 1   
    19    11    12 1   
    20    11    13 ar  
    21    12    17 1   
    22    13    23 1   
    23    14    15 ar  
    24    15    16 1   
    25    16    24 1   
    26    16    25 1   
    27    17    26 1   
    28    17    27 1   
    29    17    28 1   
@<TRIPOS>SUBSTRUCTURE
     1 JWS         1 TEMP              0 ****  ****    0 ROOT
