@<TRIPOS>MOLECULE
molecule
   46    48     1     0     0
SMALL
bcc


@<TRIPOS>ATOM
      1 CAY          0.0000     0.0000     0.0000 ca         1 JWT      -0.115000
      2 CAZ          1.3820     0.0000     0.0000 ca         1 JWT      -0.109000
      3 CBA          2.0730     0.0000     1.1970 ca         1 JWT      -0.091000
      4 CAX          1.3820    -0.0020     2.3940 ca         1 JWT      -0.109000
      5 CAW          0.0000    -0.0020     2.3940 ca         1 JWT      -0.115000
      6 CAV         -0.6920    -0.0010     1.1970 ca         1 JWT      -0.157300
      7 CAU         -2.1980     0.0040     1.1970 c3         1 JWT       0.149300
      8 NAN         -2.6910    -1.3740     1.1930 n          1 JWT      -0.368000
      9 CAO         -2.9220    -2.0220     2.3850 cc         1 JWT       0.043600
     10 NAP         -2.6920    -1.3810     3.5810 nz         1 JWT      -0.671400
     11 CAM         -2.9220    -1.9990     0.0230 c          1 JWT       0.821500
     12 OAL         -2.7170    -1.4100    -1.0200 o          1 JWT      -0.588500
     13 NAD         -3.3750    -3.2660    -0.0100 ns         1 JWT      -0.537500
     14 CAE         -3.6100    -3.9400     1.1330 c          1 JWT       0.710700
     15 OAA         -4.0210    -5.0880     1.0940 o          1 JWT      -0.558500
     16 CAF         -3.3840    -3.3110     2.3710 cd         1 JWT       0.079800
     17 NAG         -3.6290    -3.9990     3.5820 nh         1 JWT      -0.683300
     18 CAB         -2.6140    -4.0070     4.6380 c3         1 JWT       0.197100
     19 SAH         -5.0640    -4.7960     3.8050 sy         1 JWT       1.406200
     20 OAC         -5.4870    -4.4970     5.1280 o          1 JWT      -0.602800
     21 OAQ         -5.8550    -4.5270     2.6560 o          1 JWT      -0.602800
     22 CAI         -4.7120    -6.5210     3.7730 ca         1 JWT      -0.341500
     23 CAJ         -4.3970    -7.1840     4.9450 ca         1 JWT       0.003500
     24 CAK         -4.1220    -8.5380     4.9210 ca         1 JWT      -0.189500
     25 CAT         -4.1610    -9.2310     3.7230 ca         1 JWT       0.210900
     26 CAS         -4.4760    -8.5670     2.5510 ca         1 JWT      -0.189500
     27 CAR         -4.7570    -7.2130     2.5770 ca         1 JWT       0.003500
     28 FAM         -3.8910   -10.5550     3.6980 f          1 JWT      -0.116900
     29 HAW         -0.5410    -0.0040     3.3320 ha         1 JWT       0.119500
     30 HAX          1.9240    -0.0030     3.3320 ha         1 JWT       0.152500
     31 HBA          3.1570     0.0000     1.1970 ha         1 JWT       0.156000
     32 HAZ          1.9240     0.0010    -0.9380 ha         1 JWT       0.152500
     33 HAY         -0.5410     0.0010    -0.9380 ha         1 JWT       0.119500
     34 HAU1        -2.5570     0.5140     2.0830 h1         1 JWT       0.082700
     35 HAU2        -2.5570     0.5190     0.3140 h1         1 JWT       0.082700
     36 HAP1        -3.2860    -1.7680     4.2870 hn         1 JWT       0.473800
     37 HAP2        -2.8870    -0.4050     3.4790 hn         1 JWT       0.473800
     38 HAD         -3.5400    -3.7110    -0.8910 hn         1 JWT       0.398500
     39 HAB1        -2.8870    -3.2940     5.4060 h1         1 JWT       0.059033
     40 HAB2        -1.6530    -3.7350     4.2170 h1         1 JWT       0.059033
     41 HAB3        -2.5510    -4.9990     5.0700 h1         1 JWT       0.059033
     42 HAJ         -4.3670    -6.6420     5.8830 ha         1 JWT       0.165500
     43 HAR         -5.0040    -6.6930     1.6590 ha         1 JWT       0.165500
     44 HAK         -3.8750    -9.0570     5.8400 ha         1 JWT       0.163500
     45 HAS         -4.5090    -9.1090     1.6130 ha         1 JWT       0.163500
     46 HAP3        -1.7340    -1.5020     3.8450 hn         1 JWT       0.473800
@<TRIPOS>BOND
     1     5     4 ar
     2     5     6 ar
     3     4     3 ar
     4     3     2 ar
     5     2     1 ar
     6     1     6 ar
     7     6     7 1
     8     7     8 1
     9     8     9 1
    10     8    11 1
    11     9    10 1
    12     9    16 2
    13    11    12 2
    14    11    13 1
    15    13    14 1
    16    14    15 2
    17    14    16 1
    18    16    17 1
    19    17    18 1
    20    17    19 1
    21    19    21 2
    22    19    20 2
    23    19    22 1
    24    22    23 ar
    25    22    27 ar
    26    23    24 ar
    27    24    25 ar
    28    25    26 ar
    29    25    28 1
    30    26    27 ar
    31     5    29 1
    32     4    30 1
    33     3    31 1
    34     2    32 1
    35     1    33 1
    36     7    34 1
    37     7    35 1
    38    10    36 1
    39    10    37 1
    40    13    38 1
    41    18    39 1
    42    18    40 1
    43    18    41 1
    44    23    42 1
    45    27    43 1
    46    24    44 1
    47    26    45 1
    48    46    10 1
@<TRIPOS>SUBSTRUCTURE
     1 JWT         1 TEMP              0 ****  ****    0 ROOT
