@<TRIPOS>MOLECULE
JWT
   46    48     1     0     0
SMALL
bcc


@<TRIPOS>ATOM
      1 CAY          0.0000     0.0000     0.0000 ca         1 JWT      -0.088000
      2 CAZ          1.3820     0.0000     0.0000 ca         1 JWT      -0.077000
      3 CBA          2.0730     0.0000     1.1970 ca         1 JWT      -0.060000
      4 CAX          1.3820    -0.0020     2.3940 ca         1 JWT      -0.077000
      5 CAW          0.0000    -0.0020     2.3940 ca         1 JWT      -0.088000
      6 CAV         -0.6920    -0.0010     1.1970 ca         1 JWT      -0.173300
      7 CAU         -2.1980     0.0040     1.1970 c3         1 JWT       0.088300
      8 NAN         -2.6910    -1.3740     1.1930 n          1 JWT       0.052000
      9 CAO         -2.9220    -2.0220     2.3850 cc         1 JWT      -0.367400
     10 NAP         -2.6920    -1.3810     3.5810 nz         1 JWT       0.237600
     11 CAM         -2.9220    -1.9990     0.0230 c          1 JWT       0.594500
     12 OAL         -2.7170    -1.4100    -1.0200 o          1 JWT      -0.639500
     13 NAD         -3.3750    -3.2660    -0.0100 ns         1 JWT      -0.087500
     14 CAE         -3.6100    -3.9400     1.1330 c          1 JWT       0.602700
     15 OAA         -4.0210    -5.0880     1.0940 o          1 JWT      -0.597500
     16 CAF         -3.3840    -3.3110     2.3710 cd         1 JWT       0.066800
     17 NAG         -3.6290    -3.9990     3.5820 nh         1 JWT      -0.385300
     18 CAB         -2.6140    -4.0070     4.6380 c3         1 JWT       0.242100
     19 SAH         -5.0640    -4.7960     3.8050 sy         1 JWT       1.049200
     20 OAC         -5.4870    -4.4970     5.1280 o          1 JWT      -0.551800
     21 OAQ         -5.8550    -4.5270     2.6560 o          1 JWT      -0.551800
     22 CAI         -4.7120    -6.5210     3.7730 ca         1 JWT      -0.186500
     23 CAJ         -4.3970    -7.1840     4.9450 ca         1 JWT       0.031500
     24 CAK         -4.1220    -8.5380     4.9210 ca         1 JWT      -0.159500
     25 CAT         -4.1610    -9.2310     3.7230 ca         1 JWT       0.183900
     26 CAS         -4.4760    -8.5670     2.5510 ca         1 JWT      -0.159500
     27 CAR         -4.7570    -7.2130     2.5770 ca         1 JWT       0.031500
     28 FAM         -3.8910   -10.5550     3.6980 f          1 JWT      -0.111900
     29 HAW         -0.5410    -0.0040     3.3320 ha         1 JWT       0.097000
     30 HAX          1.9240    -0.0030     3.3320 ha         1 JWT       0.119500
     31 HBA          3.1570     0.0000     1.1970 ha         1 JWT       0.121000
     32 HAZ          1.9240     0.0010    -0.9380 ha         1 JWT       0.119500
     33 HAY         -0.5410     0.0010    -0.9380 ha         1 JWT       0.097000
     34 HAU1        -2.5570     0.5140     2.0830 h1         1 JWT       0.051200
     35 HAU2        -2.5570     0.5190     0.3140 h1         1 JWT       0.051200
     36 HAP1        -3.2860    -1.7680     4.2870 hn         1 JWT       0.230467
     37 HAP2        -2.8870    -0.4050     3.4790 hn         1 JWT       0.230467
     38 HAD         -3.5400    -3.7110    -0.8910 hn         1 JWT       0.231500
     39 HAB1        -2.8870    -3.2940     5.4060 h1         1 JWT       0.017367
     40 HAB2        -1.6530    -3.7350     4.2170 h1         1 JWT       0.017367
     41 HAB3        -2.5510    -4.9990     5.0700 h1         1 JWT       0.017367
     42 HAJ         -4.3670    -6.6420     5.8830 ha         1 JWT       0.138500
     43 HAR         -5.0040    -6.6930     1.6590 ha         1 JWT       0.138500
     44 HAK         -3.8750    -9.0570     5.8400 ha         1 JWT       0.135000
     45 HAS         -4.5090    -9.1090     1.6130 ha         1 JWT       0.135000
     46 HAP3        -1.7340    -1.5020     3.8450 hn         1 JWT       0.230467
@<TRIPOS>BOND
     1     1     2 ar  
     2     1     6 ar  
     3     1    33 1   
     4     2     3 ar  
     5     2    32 1   
     6     3     4 ar  
     7     3    31 1   
     8     4     5 ar  
     9     4    30 1   
    10     5     6 ar  
    11     5    29 1   
    12     6     7 1   
    13     7     8 1   
    14     7    34 1   
    15     7    35 1   
    16     8     9 1   
    17     8    11 1   
    18     9    10 1   
    19     9    16 2   
    20    10    36 1   
    21    10    37 1   
    22    10    46 1   
    23    11    12 2   
    24    11    13 1   
    25    13    14 1   
    26    13    38 1   
    27    14    15 2   
    28    14    16 1   
    29    16    17 1   
    30    17    18 1   
    31    17    19 1   
    32    18    39 1   
    33    18    40 1   
    34    18    41 1   
    35    19    20 2   
    36    19    21 2   
    37    19    22 1   
    38    22    23 ar  
    39    22    27 ar  
    40    23    24 ar  
    41    23    42 1   
    42    24    25 ar  
    43    24    44 1   
    44    25    26 ar  
    45    25    28 1   
    46    26    27 ar  
    47    26    45 1   
    48    27    43 1   
@<TRIPOS>SUBSTRUCTURE
     1 JWT         1 TEMP              0 ****  ****    0 ROOT
