@<TRIPOS>MOLECULE
JX7
   23    22     1     0     0
SMALL
bcc


@<TRIPOS>ATOM
      1 O10          0.0000     0.0000     0.0000 o          1 JX7      -0.571100
      2 C7           1.2390    -0.0050    -6.2030 c2         1 JX7       0.260100
      3 C3           1.9620    -0.0010    -1.3050 c3         1 JX7      -0.134400
      4 C4           0.9680    -0.0020    -2.4680 c3         1 JX7      -0.025400
      5 C5           1.7320    -0.0030    -3.7940 c3         1 JX7       0.126800
      6 C2           1.2080     0.0000     0.0000 c          1 JX7       0.514100
      7 C1           1.9530     0.0000     1.2910 c          1 JX7       0.895600
      8 N6           0.7800    -0.0030    -4.9070 nu         1 JX7      -0.474200
      9 N8           0.3910    -0.0050    -7.1930 n2         1 JX7      -0.666100
     10 O11          1.2810     0.0010     2.4560 o          1 JX7      -0.844800
     11 O12          3.1660    -0.0000     1.2900 o          1 JX7      -0.844800
     12 N13          2.5900     0.0010    -6.4550 nz         1 JX7       0.190400
     13 H1           2.5850     0.8830    -1.3630 hc         1 JX7       0.036700
     14 H2           2.5840    -0.8860    -1.3620 hc         1 JX7       0.036700
     15 H3           0.3450    -0.8860    -2.4100 hc         1 JX7       0.038700
     16 H4           0.3450     0.8830    -2.4110 hc         1 JX7       0.038700
     17 H5           2.3550     0.8810    -3.8520 h1         1 JX7       0.013700
     18 H6           2.3540    -0.8880    -3.8510 h1         1 JX7       0.013700
     19 H7          -0.2040    -0.0040    -4.7240 hn         1 JX7       0.345800
     20 H8          -0.5930    -0.0060    -7.0110 hn         1 JX7       0.377400
     21 H10          2.7450     0.0030    -7.4430 hn         1 JX7       0.224133
     22 H11          3.0080    -0.8150    -6.0530 hn         1 JX7       0.224133
     23 H133         3.0010     0.8190    -6.0510 hn         1 JX7       0.224133
@<TRIPOS>BOND
     1     1     6 2   
     2     2     8 1   
     3     2     9 2   
     4     2    12 1   
     5     3     4 1   
     6     3     6 1   
     7     3    13 1   
     8     3    14 1   
     9     4     5 1   
    10     4    15 1   
    11     4    16 1   
    12     5     8 1   
    13     5    17 1   
    14     5    18 1   
    15     6     7 1   
    16     7    10 1   
    17     7    11 1   
    18     8    19 1   
    19     9    20 1   
    20    12    21 1   
    21    12    22 1   
    22    12    23 1   
@<TRIPOS>SUBSTRUCTURE
     1 JX7         1 TEMP              0 ****  ****    0 ROOT
