@<TRIPOS>MOLECULE
molecule
   23    22     1     0     0
SMALL
bcc


@<TRIPOS>ATOM
      1 O10          0.0000     0.0000     0.0000 o          1 JX7      -0.539100
      2 C7           1.2390    -0.0050    -6.2030 c2         1 JX7       0.697100
      3 C3           1.9620    -0.0010    -1.3050 c3         1 JX7      -0.189400
      4 C4           0.9680    -0.0020    -2.4680 c3         1 JX7      -0.085400
      5 C5           1.7320    -0.0030    -3.7940 c3         1 JX7       0.190800
      6 C2           1.2080     0.0000     0.0000 c          1 JX7       0.476100
      7 C1           1.9530     0.0000     1.2910 c          1 JX7       0.807600
      8 N6           0.7800    -0.0030    -4.9070 nu         1 JX7      -0.841200
      9 N8           0.3910    -0.0050    -7.1930 n2         1 JX7      -0.809100
     10 O11          1.2810     0.0010     2.4560 o          1 JX7      -0.792800
     11 O12          3.1660    -0.0000     1.2900 o          1 JX7      -0.792800
     12 N13          2.5900     0.0010    -6.4550 nz         1 JX7      -0.804600
     13 H1           2.5850     0.8830    -1.3630 hc         1 JX7       0.064700
     14 H2           2.5840    -0.8860    -1.3620 hc         1 JX7       0.064700
     15 H3           0.3450     0.8830    -2.4110 hc         1 JX7       0.071700
     16 H4           0.3450    -0.8860    -2.4100 hc         1 JX7       0.071700
     17 H5           2.3550     0.8810    -3.8520 h1         1 JX7       0.036200
     18 H6           2.3540    -0.8880    -3.8510 h1         1 JX7       0.036200
     19 H7          -0.2040    -0.0040    -4.7240 hn         1 JX7       0.513800
     20 H8           0.7230    -0.0030    -8.1370 hn         1 JX7       0.427400
     21 H10          2.7450     0.0030    -7.4430 hn         1 JX7       0.465467
     22 H11          3.0080    -0.8150    -6.0530 hn         1 JX7       0.465467
     23 H133         3.0010     0.8190    -6.0510 hn         1 JX7       0.465467
@<TRIPOS>BOND
     1    10     7 1
     2     1     6 2
     3     7     6 1
     4     7    11 1
     5     6     3 1
     6     3     4 1
     7     5     4 1
     8     5     8 1
     9     8     2 1
    10     2     9 2
    11     2    12 1
    12     3    13 1
    13     3    14 1
    14     4    15 1
    15     4    16 1
    16     5    17 1
    17     5    18 1
    18     8    19 1
    19     9    20 1
    20    12    21 1
    21    12    22 1
    22    23    12 1
@<TRIPOS>SUBSTRUCTURE
     1 JX7         1 TEMP              0 ****  ****    0 ROOT
