@<TRIPOS>MOLECULE
molecule
   53    56     1     0     0
SMALL
bcc


@<TRIPOS>ATOM
      1 C1           0.0000     0.0000     0.0000 ca         1 JXM      -0.121000
      2 C2           1.3820     0.0000     0.0000 ca         1 JXM      -0.132000
      3 C3          -0.6920     0.0000     1.1960 ca         1 JXM      -0.132000
      4 C4           2.0730     0.0000     1.1970 ca         1 JXM      -0.110000
      5 C5          -0.0000    -0.0000     2.3940 ca         1 JXM      -0.110000
      6 C6           1.3820     0.0010     2.3940 ca         1 JXM      -0.128300
      7 C7           0.8400    -1.7040     8.9060 cc         1 JXM      -0.457200
      8 C8           0.2640    -1.3230     7.7030 cd         1 JXM       0.485600
      9 C9           2.2160    -1.9390     8.9430 c          1 JXM       0.719700
     10 C10          2.3250    -1.4630     6.6480 cc         1 JXM       0.768800
     11 C11          5.0560    -2.2230     6.5900 c3         1 JXM      -0.119400
     12 C12          4.3980    -1.8840     7.9130 c3         1 JXM       0.093000
     13 C13         -1.8380    -1.2460     6.3830 c3         1 JXM       0.205800
     14 C14         -1.8230    -0.5590     8.8110 c3         1 JXM       0.205800
     15 C15         -2.6300     0.0350     6.0900 c3         1 JXM       0.117900
     16 C16         -2.6160     0.6870     8.4000 c3         1 JXM       0.117900
     17 C17          4.4740    -1.4160     5.4400 c3         1 JXM       0.200500
     18 C18          2.2800    -1.4370     4.2040 c3         1 JXM       0.233800
     19 C19          2.1360    -0.0000     3.7000 c3         1 JXM       0.175400
     20 C20          4.9600    -2.0080     4.1150 c3         1 JXM       0.607900
     21 N21          1.0270    -1.2210     6.6110 nd         1 JXM      -0.748300
     22 N22         -1.0880    -1.0510     7.6340 nh         1 JXM      -0.715400
     23 N23          2.9480    -1.7690     7.8160 n          1 JXM      -0.384300
     24 N24          3.0190    -1.4390     5.4690 nh         1 JXM      -0.773600
     25 O26         -3.3990     0.3860     7.2420 os         1 JXM      -0.422600
     26 O27          1.4190     0.7730     4.6640 oh         1 JXM      -0.579800
     27 F28          4.4520    -3.3040     3.9700 f          1 JXM      -0.217300
     28 F29          4.5140    -1.2100     3.0560 f          1 JXM      -0.217300
     29 F30          6.3590    -2.0530     4.1090 f          1 JXM      -0.217300
     30 H1          -0.5410     0.0000    -0.9380 ha         1 JXM       0.130000
     31 H2           1.9240    -0.0010    -0.9380 ha         1 JXM       0.131000
     32 H3          -1.7750    -0.0000     1.1960 ha         1 JXM       0.131000
     33 H4           3.1560     0.0000     1.1970 ha         1 JXM       0.138500
     34 H5          -0.5420     0.0010     3.3320 ha         1 JXM       0.138500
     35 H19          3.1180     0.4300     3.5500 h1         1 JXM       0.039700
     36 H7           0.2130    -2.0270     9.7280 ha         1 JXM       0.166000
     37 H111         6.1160    -2.0150     6.6620 hc         1 JXM       0.078200
     38 H112         4.9110    -3.2770     6.3870 hc         1 JXM       0.078200
     39 H121         4.7980    -0.9410     8.2670 h1         1 JXM       0.077700
     40 H122         4.6380    -2.6610     8.6280 h1         1 JXM       0.077700
     41 H17          4.8130    -0.3910     5.5210 h1         1 JXM       0.082700
     42 H132        -2.5210    -2.0790     6.4940 h1         1 JXM       0.062700
     43 H151        -1.9420     0.8390     5.8560 h1         1 JXM       0.055450
     44 H152        -3.2940    -0.1360     5.2510 h1         1 JXM       0.055450
     45 H141        -1.1210    -0.3010     9.5950 h1         1 JXM       0.062700
     46 H142        -2.5040    -1.3250     9.1610 h1         1 JXM       0.062700
     47 H161        -1.9280     1.4930     8.1710 h1         1 JXM       0.055450
     48 H162        -3.2700     0.9830     9.2110 h1         1 JXM       0.055450
     49 H181         1.2970    -1.8660     4.3590 h1         1 JXM       0.086200
     50 H182         2.8180    -2.0250     3.4700 h1         1 JXM       0.086200
     51 H27          1.6850     1.6760     4.6050 ho         1 JXM       0.399000
     52 O25          2.7530    -2.2930     9.9810 o          1 JXM      -0.665500
     53 H131        -1.1470    -1.4390     5.5710 h1         1 JXM       0.062700
@<TRIPOS>BOND
     1     1     2 ar
     2     1     3 ar
     3     2     4 ar
     4     3     5 ar
     5     4     6 ar
     6     5     6 ar
     7     6    19 1
     8     7     8 2
     9     7     9 1
    10     8    21 1
    11     8    22 1
    12     9    23 1
    13     9    52 2
    14    10    21 2
    15    10    23 1
    16    10    24 1
    17    11    12 1
    18    11    17 1
    19    12    23 1
    20    13    15 1
    21    13    22 1
    22    14    16 1
    23    14    22 1
    24    15    25 1
    25    16    25 1
    26    17    20 1
    27    17    24 1
    28    18    19 1
    29    18    24 1
    30    19    26 1
    31    20    27 1
    32    20    28 1
    33    20    29 1
    34     1    30 1
    35     2    31 1
    36     3    32 1
    37     4    33 1
    38     5    34 1
    39    19    35 1
    40     7    36 1
    41    11    37 1
    42    11    38 1
    43    12    39 1
    44    12    40 1
    45    17    41 1
    46    13    53 1
    47    13    42 1
    48    15    43 1
    49    15    44 1
    50    14    45 1
    51    14    46 1
    52    16    47 1
    53    16    48 1
    54    18    49 1
    55    18    50 1
    56    26    51 1
@<TRIPOS>SUBSTRUCTURE
     1 JXM         1 TEMP              0 ****  ****    0 ROOT
