@<TRIPOS>MOLECULE
JXM
   53    56     1     0     0
SMALL
bcc


@<TRIPOS>ATOM
      1 C1           0.0000     0.0000     0.0000 ca         1 JXM      -0.094000
      2 C2           1.3820     0.0000     0.0000 ca         1 JXM      -0.104500
      3 C3          -0.6920     0.0000     1.1960 ca         1 JXM      -0.104500
      4 C4           2.0730     0.0000     1.1970 ca         1 JXM      -0.083000
      5 C5          -0.0000    -0.0000     2.3940 ca         1 JXM      -0.083000
      6 C6           1.3820     0.0010     2.3940 ca         1 JXM      -0.137300
      7 C7           0.8400    -1.7040     8.9060 cc         1 JXM      -0.460200
      8 C8           0.2640    -1.3230     7.7030 cd         1 JXM       0.319600
      9 C9           2.2160    -1.9390     8.9430 c          1 JXM       0.640700
     10 C10          2.3250    -1.4630     6.6480 cc         1 JXM       0.454800
     11 C11          5.0560    -2.2230     6.5900 c3         1 JXM      -0.055400
     12 C12          4.3980    -1.8840     7.9130 c3         1 JXM       0.027000
     13 C13         -1.8380    -1.2460     6.3830 c3         1 JXM       0.133300
     14 C14         -1.8230    -0.5590     8.8110 c3         1 JXM       0.133300
     15 C15         -2.6300     0.0350     6.0900 c3         1 JXM       0.195400
     16 C16         -2.6160     0.6870     8.4000 c3         1 JXM       0.195400
     17 C17          4.4740    -1.4160     5.4400 c3         1 JXM       0.091500
     18 C18          2.2800    -1.4370     4.2040 c3         1 JXM       0.128800
     19 C19          2.1360    -0.0000     3.7000 c3         1 JXM       0.228400
     20 C20          4.9600    -2.0080     4.1150 c3         1 JXM       0.571900
     21 N21          1.0270    -1.2210     6.6110 nd         1 JXM      -0.650300
     22 N22         -1.0880    -1.0510     7.6340 nh         1 JXM      -0.354400
     23 N23          2.9480    -1.7690     7.8160 n          1 JXM       0.025700
     24 N24          3.0190    -1.4390     5.4690 nh         1 JXM      -0.404600
     25 O26         -3.3990     0.3860     7.2420 os         1 JXM      -0.407600
     26 O27          1.4190     0.7730     4.6640 oh         1 JXM      -0.562800
     27 F28          4.4520    -3.3040     3.9700 f          1 JXM      -0.199300
     28 F29          4.5140    -1.2100     3.0560 f          1 JXM      -0.199300
     29 F30          6.3590    -2.0530     4.1090 f          1 JXM      -0.199300
     30 H1          -0.5410     0.0000    -0.9380 ha         1 JXM       0.103000
     31 H2           1.9240    -0.0010    -0.9380 ha         1 JXM       0.104000
     32 H3          -1.7750    -0.0000     1.1960 ha         1 JXM       0.104000
     33 H4           3.1560     0.0000     1.1970 ha         1 JXM       0.113500
     34 H5          -0.5420     0.0010     3.3320 ha         1 JXM       0.113500
     35 H19          3.1180     0.4300     3.5500 h1         1 JXM       0.008700
     36 H7           0.2130    -2.0270     9.7280 ha         1 JXM       0.155000
     37 H111         6.1160    -2.0150     6.6620 hc         1 JXM       0.047200
     38 H112         4.9110    -3.2770     6.3870 hc         1 JXM       0.047200
     39 H121         4.7980    -0.9410     8.2670 h1         1 JXM       0.050200
     40 H122         4.6380    -2.6610     8.6280 h1         1 JXM       0.050200
     41 H17          4.8130    -0.3910     5.5210 h1         1 JXM       0.058700
     42 H132        -2.5210    -2.0790     6.4940 h1         1 JXM       0.035200
     43 H151        -1.9420     0.8390     5.8560 h1         1 JXM       0.015200
     44 H152        -3.2940    -0.1360     5.2510 h1         1 JXM       0.015200
     45 H141        -1.1210    -0.3010     9.5950 h1         1 JXM       0.035200
     46 H142        -2.5040    -1.3250     9.1610 h1         1 JXM       0.035200
     47 H161        -1.9280     1.4930     8.1710 h1         1 JXM       0.015200
     48 H162        -3.2700     0.9830     9.2110 h1         1 JXM       0.015200
     49 H181         1.2970    -1.8660     4.3590 h1         1 JXM       0.061200
     50 H182         2.8180    -2.0250     3.4700 h1         1 JXM       0.061200
     51 H27          1.6850     1.6760     4.6050 ho         1 JXM       0.386000
     52 O25          2.7530    -2.2930     9.9810 o          1 JXM      -0.710500
     53 H131        -1.1470    -1.4390     5.5710 h1         1 JXM       0.035200
@<TRIPOS>BOND
     1     1     2 ar  
     2     1     3 ar  
     3     1    30 1   
     4     2     4 ar  
     5     2    31 1   
     6     3     5 ar  
     7     3    32 1   
     8     4     6 ar  
     9     4    33 1   
    10     5     6 ar  
    11     5    34 1   
    12     6    19 1   
    13     7     8 2   
    14     7     9 1   
    15     7    36 1   
    16     8    21 1   
    17     8    22 1   
    18     9    23 1   
    19     9    52 2   
    20    10    21 2   
    21    10    23 1   
    22    10    24 1   
    23    11    12 1   
    24    11    17 1   
    25    11    37 1   
    26    11    38 1   
    27    12    23 1   
    28    12    39 1   
    29    12    40 1   
    30    13    15 1   
    31    13    22 1   
    32    13    42 1   
    33    13    53 1   
    34    14    16 1   
    35    14    22 1   
    36    14    45 1   
    37    14    46 1   
    38    15    25 1   
    39    15    43 1   
    40    15    44 1   
    41    16    25 1   
    42    16    47 1   
    43    16    48 1   
    44    17    20 1   
    45    17    24 1   
    46    17    41 1   
    47    18    19 1   
    48    18    24 1   
    49    18    49 1   
    50    18    50 1   
    51    19    26 1   
    52    19    35 1   
    53    20    27 1   
    54    20    28 1   
    55    20    29 1   
    56    26    51 1   
@<TRIPOS>SUBSTRUCTURE
     1 JXM         1 TEMP              0 ****  ****    0 ROOT
