@<TRIPOS>MOLECULE
JXP
   39    43     1     0     0
SMALL
bcc


@<TRIPOS>ATOM
      1 C13          0.0000     0.0000     0.0000 cp         1 JXP      -0.008000
      2 C18          1.3930     0.0000     0.0000 ca         1 JXP      -0.133000
      3 C17          2.0810     0.0000     1.1990 ca         1 JXP       0.076000
      4 C16          1.3880     0.0000     2.3980 ca         1 JXP      -0.129000
      5 C15          0.0040     0.0000     2.4020 ca         1 JXP      -0.068000
      6 C11         -2.8260    -0.0170    -2.4780 ca         1 JXP      -0.088000
      7 C12         -2.1340    -0.0170    -3.6780 ca         1 JXP      -0.107000
      8 F            3.4330    -0.0010     1.2020 f          1 JXP      -0.093000
      9 O            1.4030    -0.0060    -4.7380 op         1 JXP      -0.151000
     10 Cl          -3.0060    -0.0240    -5.1790 cl         1 JXP       0.057000
     11 C1           0.8260    -0.0070    -7.2600 c2         1 JXP      -0.217000
     12 N1           2.8790    -0.0050    -8.4380 n2         1 JXP      -0.009000
     13 C2           1.5590    -0.0050    -8.4470 c2         1 JXP       0.007000
     14 N2           3.8780     0.0070    -5.1070 na         1 JXP       0.404000
     15 C3           3.5680    -0.0070    -7.2960 c2         1 JXP      -0.052000
     16 N3           5.0170    -0.0090    -5.7080 n2         1 JXP      -0.147000
     17 C4           2.8930     0.0020    -6.0650 c2         1 JXP      -0.427000
     18 N4           4.8800    -0.0070    -6.9880 n2         1 JXP      -0.044000
     19 C5           1.4940    -0.0040    -6.0470 cx         1 JXP       0.160000
     20 C7          -0.7500    -0.0120    -3.6830 ca         1 JXP      -0.114000
     21 C8          -0.0530    -0.0060    -2.4930 ca         1 JXP      -0.074000
     22 C9          -0.7450    -0.0060    -1.2830 cq         1 JXP      -0.026000
     23 C10         -2.1390    -0.0060    -1.2820 ca         1 JXP      -0.085000
     24 C14         -0.6920     0.0000     1.2100 ca         1 JXP      -0.111000
     25 H1           1.9360    -0.0000    -0.9370 ha         1 JXP       0.124000
     26 H2           1.9300     0.0000     3.3360 ha         1 JXP       0.121000
     27 H3          -0.5340     0.0000     3.3420 ha         1 JXP       0.108000
     28 H4          -3.9100    -0.0170    -2.4790 ha         1 JXP       0.118000
     29 H5          -0.2570    -0.0070    -7.2870 ha         1 JXP       0.137000
     30 H6           3.7350     0.0100    -4.1170 hn         1 JXP       0.107000
     31 H7           0.6570    -0.8710   -10.1100 hn         1 JXP       0.074500
     32 H8           0.6560     0.8620   -10.1080 hn         1 JXP       0.074500
     33 H9          -0.2640    -0.8960    -5.5610 ha         1 JXP       0.086000
     34 H10         -0.2710     0.8730    -5.5580 ha         1 JXP       0.086000
     35 H11          1.0310    -0.0020    -2.4980 ha         1 JXP       0.124000
     36 H12         -2.6810    -0.0060    -0.3440 ha         1 JXP       0.118000
     37 H13         -1.7750     0.0000     1.2150 ha         1 JXP       0.115000
     38 C6          -0.0030    -0.0110    -4.9920 DU         1 JXP       0.041000
     39 N5           0.8850    -0.0050    -9.6640 n8         1 JXP      -0.051000
@<TRIPOS>BOND
     1     1     2 1   
     2     1    22 1   
     3     1    24 1   
     4     2     3 1   
     5     2    25 1   
     6     3     4 1   
     7     3     8 1   
     8     4     5 1   
     9     4    26 1   
    10     5    24 1   
    11     5    27 1   
    12     6     7 1   
    13     6    23 1   
    14     6    28 1   
    15     7    10 1   
    16     7    20 1   
    17     9    19 1   
    18     9    38 1   
    19    11    13 1   
    20    11    19 1   
    21    11    29 1   
    22    12    13 1   
    23    12    15 1   
    24    13    39 1   
    25    14    16 1   
    26    14    17 1   
    27    14    30 1   
    28    15    17 1   
    29    15    18 1   
    30    16    18 1   
    31    17    19 1   
    32    19    38 1   
    33    20    21 1   
    34    20    38 1   
    35    21    22 1   
    36    21    35 1   
    37    22    23 1   
    38    23    36 1   
    39    24    37 1   
    40    31    39 1   
    41    32    39 1   
    42    33    38 1   
    43    34    38 1   
@<TRIPOS>SUBSTRUCTURE
     1 JXP         1 TEMP              0 ****  ****    0 ROOT
