@<TRIPOS>MOLECULE
molecule
   39    42     1     0     0
SMALL
bcc


@<TRIPOS>ATOM
      1 C13          0.0000     0.0000     0.0000 cp         1 JXP      -0.013000
      2 C18          1.3930     0.0000     0.0000 ca         1 JXP      -0.159000
      3 C17          2.0810     0.0000     1.1990 ca         1 JXP       0.137900
      4 C16          1.3880     0.0000     2.3980 ca         1 JXP      -0.162000
      5 C15          0.0040     0.0000     2.4020 ca         1 JXP      -0.099000
      6 C11         -2.8260    -0.0170    -2.4780 ca         1 JXP      -0.113000
      7 C12         -2.1340    -0.0170    -3.6780 ca         1 JXP       0.032400
      8 F            3.4330    -0.0010     1.2020 f          1 JXP      -0.138900
      9 O            1.4030    -0.0060    -4.7380 os         1 JXP      -0.264900
     10 Cl          -3.0060    -0.0240    -5.1790 cl         1 JXP      -0.105400
     11 C1           0.8260    -0.0070    -7.2600 ca         1 JXP      -0.298300
     12 N1           2.8790    -0.0050    -8.4380 nb         1 JXP      -0.675000
     13 C2           1.5590    -0.0050    -8.4470 ca         1 JXP       0.719200
     14 N2           3.8780     0.0070    -5.1070 na         1 JXP       0.042900
     15 C3           3.5680    -0.0070    -7.2960 ca         1 JXP       0.559300
     16 N3           5.0170    -0.0090    -5.7080 nc         1 JXP      -0.141400
     17 C4           2.8930     0.0020    -6.0650 ca         1 JXP      -0.325500
     18 N4           4.8800    -0.0070    -6.9880 nd         1 JXP      -0.304000
     19 C5           1.4940    -0.0040    -6.0470 ca         1 JXP       0.160100
     20 C7          -0.7500    -0.0120    -3.6830 ca         1 JXP      -0.100300
     21 C8          -0.0530    -0.0060    -2.4930 ca         1 JXP      -0.093000
     22 C9          -0.7450    -0.0060    -1.2830 cp         1 JXP      -0.030000
     23 C10         -2.1390    -0.0060    -1.2820 ca         1 JXP      -0.106000
     24 C14         -0.6920     0.0000     1.2100 ca         1 JXP      -0.133000
     25 H1           1.9360    -0.0000    -0.9370 ha         1 JXP       0.145000
     26 H2           1.9300     0.0000     3.3360 ha         1 JXP       0.148000
     27 H3          -0.5340     0.0000     3.3420 ha         1 JXP       0.140000
     28 H4          -3.9100    -0.0170    -2.4790 ha         1 JXP       0.150000
     29 H5          -0.2570    -0.0070    -7.2870 ha         1 JXP       0.157000
     30 H6           3.7350     0.0100    -4.1170 hn         1 JXP       0.346700
     31 H7           0.6570    -0.8710   -10.1100 hn         1 JXP       0.441800
     32 H8           0.6560     0.8620   -10.1080 hn         1 JXP       0.441800
     33 H9          -0.2640    -0.8960    -5.5610 h1         1 JXP       0.080200
     34 H10         -0.2710     0.8730    -5.5580 h1         1 JXP       0.080200
     35 H11          1.0310    -0.0020    -2.4980 ha         1 JXP       0.149000
     36 H12         -2.6810    -0.0060    -0.3440 ha         1 JXP       0.144000
     37 H13         -1.7750     0.0000     1.2150 ha         1 JXP       0.137000
     38 C6          -0.0030    -0.0110    -4.9920 c3         1 JXP       0.123700
     39 N5           0.8850    -0.0050    -9.6640 nv         1 JXP      -1.075500
@<TRIPOS>BOND
     1     8     3 1
     2     3     4 ar
     3     3     2 ar
     4     4     5 ar
     5     2     1 ar
     6     5    24 ar
     7     1    24 ar
     8     1    22 1
     9    14    16 1
    10    14    17 1
    11    16    18 2
    12    17    19 ar
    13    17    15 ar
    14    18    15 1
    15    21    22 ar
    16    21    20 ar
    17     9    19 1
    18     9    38 1
    19    19    11 ar
    20    15    12 ar
    21    22    23 ar
    22    11    13 ar
    23    12    13 ar
    24    38    20 1
    25    13    39 1
    26    20     7 ar
    27    23     6 ar
    28     7     6 ar
    29     7    10 1
    30     2    25 1
    31     4    26 1
    32     5    27 1
    33     6    28 1
    34    11    29 1
    35    14    30 1
    36    39    31 1
    37    39    32 1
    38    38    33 1
    39    38    34 1
    40    21    35 1
    41    23    36 1
    42    24    37 1
@<TRIPOS>SUBSTRUCTURE
     1 JXP         1 TEMP              0 ****  ****    0 ROOT
