@<TRIPOS>MOLECULE
molecule
   39    42     1     0     0
SMALL
bcc


@<TRIPOS>ATOM
      1 C05          0.0000     0.0000     0.0000 ca         1 JXS      -0.079000
      2 C06         -4.8800    -0.4260     1.1970 ca         1 JXS      -0.351300
      3 C01          1.3870    -0.0000     2.4000 ca         1 JXS      -0.135000
      4 C13         -5.9790    -2.9380     1.1910 ca         1 JXS       0.576300
      5 C16         -2.1950     0.0040     1.1970 c3         1 JXS       0.190700
      6 C15          2.5020     0.1380    -4.8770 c3         1 JXS       0.062600
      7 C11         -4.0220    -1.5140     1.1940 ca         1 JXS       0.195100
      8 C02          2.0850     0.0000     1.2100 ca         1 JXS      -0.098000
      9 C03          0.0040    -0.0060     2.3940 ca         1 JXS      -0.100000
     10 C04          3.5360    -0.0990    -1.4300 cc         1 JXS      -0.337300
     11 C12          2.1390     0.0010    -1.2840 cd         1 JXS       0.389800
     12 C07          3.8180    -0.0560    -2.7510 cd         1 JXS      -0.110300
     13 C08          1.3930     0.0000     0.0000 ca         1 JXS      -0.110500
     14 C09         -0.6880    -0.0010     1.1960 ca         1 JXS      -0.108300
     15 C10         -4.5820    -2.7950     1.1910 ca         1 JXS      -0.285500
     16 C14         -6.2580    -0.6400     1.2030 ca         1 JXS       0.723200
     17 N17         -4.0830    -4.0740     1.1880 na         1 JXS       0.030900
     18 N18          1.6110     0.0940    -2.4850 nc         1 JXS      -0.507800
     19 N19         -6.7630    -1.8600     1.2050 nb         1 JXS      -0.689000
     20 N20         -5.0800    -4.8910     1.1850 nd         1 JXS      -0.140400
     21 N21         -6.2050    -4.2670     1.1870 nc         1 JXS      -0.307000
     22 N22          2.6510     0.0600    -3.4220 na         1 JXS       0.067400
     23 N23         -7.1170     0.4530     1.2190 nv         1 JXS      -1.079500
     24 O24         -2.6760    -1.3410     1.1940 os         1 JXS      -0.326900
     25 H1          -0.5420     0.0000    -0.9380 ha         1 JXS       0.152000
     26 H3           1.9230    -0.0020     3.3420 ha         1 JXS       0.136000
     27 H4          -2.5530     0.5140     2.0830 h1         1 JXS       0.048200
     28 H5          -2.5550     0.5190     0.3140 h1         1 JXS       0.048200
     29 H6           3.0630     0.9850    -5.2530 h1         1 JXS       0.055700
     30 H7           2.8780    -0.7730    -5.3280 h1         1 JXS       0.055700
     31 H8           1.4550     0.2590    -5.1270 h1         1 JXS       0.055700
     32 H9           3.1680     0.0020     1.2160 ha         1 JXS       0.138000
     33 H10         -0.5400    -0.0070     3.3310 ha         1 JXS       0.134000
     34 H11          4.2570    -0.1890    -0.6270 ha         1 JXS       0.155000
     35 H12          4.8050    -0.1100    -3.1940 h4         1 JXS       0.170000
     36 H13         -3.1150    -4.3270     1.1870 hn         1 JXS       0.348700
     37 H14         -7.4450     0.8450     0.3590 hn         1 JXS       0.439800
     38 H15         -7.4320     0.8290     2.0920 hn         1 JXS       0.439800
     39 H2          -4.4840     0.5830     1.1960 ha         1 JXS       0.155000
@<TRIPOS>BOND
     1     6    22 1
     2    22    18 1
     3    22    12 1
     4    18    11 2
     5    12    10 2
     6    11    10 1
     7    11    13 1
     8     8    13 ar
     9     8     3 ar
    10    13     1 ar
    11     3     9 ar
    12     1    14 ar
    13    23    16 1
    14     9    14 ar
    15    16    19 ar
    16    16     2 ar
    17    14     5 1
    18    19     4 ar
    19     2     7 ar
    20     4    21 1
    21     4    15 ar
    22    21    20 2
    23     7    15 ar
    24     7    24 1
    25    15    17 1
    26     5    24 1
    27    20    17 1
    28     1    25 1
    29     2    39 1
    30     3    26 1
    31     5    27 1
    32     5    28 1
    33     6    29 1
    34     6    30 1
    35     6    31 1
    36     8    32 1
    37     9    33 1
    38    10    34 1
    39    12    35 1
    40    17    36 1
    41    23    37 1
    42    23    38 1
@<TRIPOS>SUBSTRUCTURE
     1 JXS         1 TEMP              0 ****  ****    0 ROOT
