@<TRIPOS>MOLECULE
JXS
   39    42     1     0     0
SMALL
bcc


@<TRIPOS>ATOM
      1 C05          0.0000     0.0000     0.0000 ca         1 JXS      -0.052000
      2 C06         -4.8800    -0.4260     1.1970 ca         1 JXS      -0.340300
      3 C01          1.3870    -0.0000     2.4000 ca         1 JXS      -0.108000
      4 C13         -5.9790    -2.9380     1.1910 ca         1 JXS       0.505300
      5 C16         -2.1950     0.0040     1.1970 c3         1 JXS       0.270700
      6 C15          2.5020     0.1380    -4.8770 c3         1 JXS       0.023600
      7 C11         -4.0220    -1.5140     1.1940 ca         1 JXS       0.219100
      8 C02          2.0850     0.0000     1.2100 ca         1 JXS      -0.078000
      9 C03          0.0040    -0.0060     2.3940 ca         1 JXS      -0.074000
     10 C04          3.5360    -0.0990    -1.4300 cc         1 JXS      -0.317300
     11 C12          2.1390     0.0010    -1.2840 cc         1 JXS       0.419800
     12 C07          3.8180    -0.0560    -2.7510 cd         1 JXS      -0.246300
     13 C08          1.3930     0.0000     0.0000 ca         1 JXS      -0.113500
     14 C09         -0.6880    -0.0010     1.1960 ca         1 JXS      -0.128300
     15 C10         -4.5820    -2.7950     1.1910 ca         1 JXS      -0.474500
     16 C14         -6.2580    -0.6400     1.2030 ca         1 JXS       0.537200
     17 N17         -4.0830    -4.0740     1.1880 na         1 JXS       0.556900
     18 N18          1.6110     0.0940    -2.4850 nd         1 JXS      -0.644800
     19 N19         -6.7630    -1.8600     1.2050 nb         1 JXS      -0.552000
     20 N20         -5.0800    -4.8910     1.1850 nc         1 JXS      -0.325400
     21 N21         -6.2050    -4.2670     1.1870 nd         1 JXS      -0.268000
     22 N22          2.6510     0.0600    -3.4220 na         1 JXS       0.490400
     23 N23         -7.1170     0.4530     1.2190 nv         1 JXS      -0.658500
     24 O24         -2.6760    -1.3410     1.1940 os         1 JXS      -0.308900
     25 H1          -0.5420     0.0000    -0.9380 ha         1 JXS       0.126000
     26 H3           1.9230    -0.0020     3.3420 ha         1 JXS       0.106000
     27 H4          -2.5530     0.5140     2.0830 h1         1 JXS       0.009200
     28 H5          -2.5550     0.5190     0.3140 h1         1 JXS       0.009200
     29 H6           3.0630     0.9850    -5.2530 h1         1 JXS       0.021367
     30 H7           2.8780    -0.7730    -5.3280 h1         1 JXS       0.021367
     31 H8           1.4550     0.2590    -5.1270 h1         1 JXS       0.021367
     32 H9           3.1680     0.0020     1.2160 ha         1 JXS       0.110000
     33 H10         -0.5400    -0.0070     3.3310 ha         1 JXS       0.105000
     34 H11          4.2570    -0.1890    -0.6270 ha         1 JXS       0.137000
     35 H12          4.8050    -0.1100    -3.1940 h4         1 JXS       0.145000
     36 H13         -3.1150    -4.3270     1.1870 hn         1 JXS       0.158700
     37 H14         -7.4450     0.8450     0.3590 hn         1 JXS       0.277800
     38 H15         -7.4320     0.8290     2.0920 hn         1 JXS       0.277800
     39 H2          -4.4840     0.5830     1.1960 ha         1 JXS       0.139000
@<TRIPOS>BOND
     1     1    13 ar  
     2     1    14 ar  
     3     1    25 1   
     4     2     7 ar  
     5     2    16 ar  
     6     2    39 1   
     7     3     8 ar  
     8     3     9 ar  
     9     3    26 1   
    10     4    15 ar  
    11     4    19 ar  
    12     4    21 1   
    13     5    14 1   
    14     5    24 1   
    15     5    27 1   
    16     5    28 1   
    17     6    22 1   
    18     6    29 1   
    19     6    30 1   
    20     6    31 1   
    21     7    15 ar  
    22     7    24 1   
    23     8    13 ar  
    24     8    32 1   
    25     9    14 ar  
    26     9    33 1   
    27    10    11 1   
    28    10    12 2   
    29    10    34 1   
    30    11    13 1   
    31    11    18 2   
    32    12    22 1   
    33    12    35 1   
    34    15    17 1   
    35    16    19 ar  
    36    16    23 1   
    37    17    20 1   
    38    17    36 1   
    39    18    22 1   
    40    20    21 2   
    41    23    37 1   
    42    23    38 1   
@<TRIPOS>SUBSTRUCTURE
     1 JXS         1 TEMP              0 ****  ****    0 ROOT
