@<TRIPOS>MOLECULE
JXV
   45    48     1     0     0
SMALL
bcc


@<TRIPOS>ATOM
      1 C1           0.0000     0.0000     0.0000 cp         1 JXV      -0.166500
      2 C2           1.3940     0.0000     0.0000 ca         1 JXV      -0.059000
      3 C3          -0.6930    -0.0010     1.2090 ca         1 JXV      -0.088000
      4 C4           2.0860     0.0000     1.1990 ca         1 JXV       0.059100
      5 C5          -0.0010     0.0000     2.4010 ca         1 JXV      -0.113000
      6 C6           1.3880     0.0020     2.4030 ca         1 JXV       0.082100
      7 C11         -0.7420     0.0060    -1.2820 cp         1 JXV       0.531800
      8 C15         -2.1320     0.1170    -1.2950 ca         1 JXV      -0.440600
      9 C18         -4.9480     0.3380    -1.3650 c3         1 JXV       0.148800
     10 C19         -6.4340     0.4410    -1.7170 c3         1 JXV       0.244400
     11 C21         -8.5380    -0.4670     1.2830 ca         1 JXV      -0.103500
     12 C23         -7.7970    -0.5730     0.1210 ca         1 JXV      -0.079500
     13 C24         -7.4420     1.7950     0.1310 ca         1 JXV      -0.079500
     14 O26         -6.6520     1.5970    -2.5290 oh         1 JXV      -0.581800
     15 C10          4.1070     0.3680     2.3970 c3         1 JXV       0.169400
     16 C13         -2.7810     0.1180    -2.5280 ca         1 JXV       0.551200
     17 C14         -0.7440    -0.0870    -3.5870 ca         1 JXV       0.681900
     18 C20         -8.7330     0.7700     1.8690 ca         1 JXV      -0.092000
     19 C22         -8.1840     1.9010     1.2920 ca         1 JXV      -0.103500
     20 C25         -7.2430     0.5570    -0.4510 ca         1 JXV      -0.138300
     21 C9           3.4310    -0.3710     3.5600 c3         1 JXV       0.169400
     22 N12         -2.0570     0.0150    -3.6400 nb         1 JXV      -0.713000
     23 N16         -0.0910    -0.0870    -2.4430 nb         1 JXV      -0.688000
     24 N17         -4.1610     0.2250    -2.5950 nu         1 JXV      -0.490900
     25 O7           2.0510     0.0090     3.5910 os         1 JXV      -0.299900
     26 O8           3.4470    -0.0070     1.1830 os         1 JXV      -0.295900
     27 H1           1.9360     0.0000    -0.9380 ha         1 JXV       0.139000
     28 H2          -1.7770    -0.0010     1.2130 ha         1 JXV       0.111000
     29 H3          -0.5420    -0.0000     3.3400 ha         1 JXV       0.116000
     30 H4          -2.6920     0.2000    -0.3710 ha         1 JXV       0.139000
     31 H5          -4.7830    -0.5380    -0.7490 h1         1 JXV       0.028700
     32 H6          -4.6440     1.2240    -0.8210 h1         1 JXV       0.028700
     33 H7          -6.7380    -0.4450    -2.2610 h1         1 JXV       0.006700
     34 H9          -7.6440    -1.5430    -0.3380 ha         1 JXV       0.111500
     35 H10         -7.0120     2.6810    -0.3200 ha         1 JXV       0.111500
     36 H11         -7.2570     1.3850    -3.2210 ho         1 JXV       0.396000
     37 H12          5.1520     0.0870     2.3450 h1         1 JXV       0.024700
     38 H13          4.0180     1.4380     2.5450 h1         1 JXV       0.024700
     39 H14         -0.1850    -0.1670    -4.5110 h5         1 JXV      -0.005900
     40 H15         -9.3150     0.8530     2.7790 ha         1 JXV       0.103000
     41 H16         -8.3380     2.8700     1.7500 ha         1 JXV       0.104500
     42 H17          3.9060    -0.0930     4.4930 h1         1 JXV       0.024700
     43 H18          3.5110    -1.4400     3.4070 h1         1 JXV       0.024700
     44 H19         -4.6220     0.1990    -3.4830 hn         1 JXV       0.301800
     45 H8          -8.9700    -1.3540     1.7320 ha         1 JXV       0.104500
@<TRIPOS>BOND
     1     1     2 ar  
     2     1     3 ar  
     3     1     7 1   
     4     2     4 ar  
     5     2    27 1   
     6     3     5 ar  
     7     3    28 1   
     8     4     6 ar  
     9     4    26 1   
    10     5     6 ar  
    11     5    29 1   
    12     6    25 1   
    13     7     8 ar  
    14     7    23 ar  
    15     8    16 ar  
    16     8    30 1   
    17     9    10 1   
    18     9    24 1   
    19     9    31 1   
    20     9    32 1   
    21    10    14 1   
    22    10    20 1   
    23    10    33 1   
    24    11    12 ar  
    25    11    18 ar  
    26    11    45 1   
    27    12    20 ar  
    28    12    34 1   
    29    13    19 ar  
    30    13    20 ar  
    31    13    35 1   
    32    14    36 1   
    33    15    21 1   
    34    15    26 1   
    35    15    37 1   
    36    15    38 1   
    37    16    22 ar  
    38    16    24 1   
    39    17    22 ar  
    40    17    23 ar  
    41    17    39 1   
    42    18    19 ar  
    43    18    40 1   
    44    19    41 1   
    45    21    25 1   
    46    21    42 1   
    47    21    43 1   
    48    24    44 1   
@<TRIPOS>SUBSTRUCTURE
     1 JXV         1 TEMP              0 ****  ****    0 ROOT
