@<TRIPOS>MOLECULE
molecule
   45    48     1     0     0
SMALL
bcc


@<TRIPOS>ATOM
      1 C1           0.0000     0.0000     0.0000 cp         1 JXV      -0.158500
      2 C2           1.3940     0.0000     0.0000 ca         1 JXV      -0.075000
      3 C3          -0.6930    -0.0010     1.2090 ca         1 JXV      -0.108000
      4 C4           2.0860     0.0000     1.1990 ca         1 JXV       0.051100
      5 C5          -0.0010     0.0000     2.4010 ca         1 JXV      -0.134000
      6 C6           1.3880     0.0020     2.4030 ca         1 JXV       0.077100
      7 C11         -0.7420     0.0060    -1.2820 cp         1 JXV       0.557800
      8 C15         -2.1320     0.1170    -1.2950 ca         1 JXV      -0.443600
      9 C18         -4.9480     0.3380    -1.3650 c3         1 JXV       0.239800
     10 C19         -6.4340     0.4410    -1.7170 c3         1 JXV       0.182400
     11 C21         -8.5380    -0.4670     1.2830 ca         1 JXV      -0.131000
     12 C23         -7.7970    -0.5730     0.1210 ca         1 JXV      -0.108000
     13 C24         -7.4420     1.7950     0.1310 ca         1 JXV      -0.108000
     14 O26         -6.6520     1.5970    -2.5290 oh         1 JXV      -0.597800
     15 C10          4.1070     0.3680     2.3970 c3         1 JXV       0.099400
     16 C13         -2.7810     0.1180    -2.5280 ca         1 JXV       0.733200
     17 C14         -0.7440    -0.0870    -3.5870 ca         1 JXV       0.726900
     18 C20         -8.7330     0.7700     1.8690 ca         1 JXV      -0.119000
     19 C22         -8.1840     1.9010     1.2920 ca         1 JXV      -0.131000
     20 C25         -7.2430     0.5570    -0.4510 ca         1 JXV      -0.125300
     21 C9           3.4310    -0.3710     3.5600 c3         1 JXV       0.098400
     22 N12         -2.0570     0.0150    -3.6400 nb         1 JXV      -0.817000
     23 N16         -0.0910    -0.0870    -2.4430 nb         1 JXV      -0.787000
     24 N17         -4.1610     0.2250    -2.5950 nu         1 JXV      -0.906900
     25 O7           2.0510     0.0090     3.5910 os         1 JXV      -0.321900
     26 O8           3.4470    -0.0070     1.1830 os         1 JXV      -0.318900
     27 H1           1.9360     0.0000    -0.9380 ha         1 JXV       0.172000
     28 H2          -1.7770    -0.0010     1.2130 ha         1 JXV       0.137000
     29 H3          -0.5420    -0.0000     3.3400 ha         1 JXV       0.147000
     30 H4          -2.6920     0.2000    -0.3710 ha         1 JXV       0.145000
     31 H5          -4.7830    -0.5380    -0.7490 h1         1 JXV       0.055200
     32 H6          -4.6440     1.2240    -0.8210 h1         1 JXV       0.055200
     33 H7          -6.7380    -0.4450    -2.2610 h1         1 JXV       0.043700
     34 H9          -7.6440    -1.5430    -0.3380 ha         1 JXV       0.139000
     35 H10         -7.0120     2.6810    -0.3200 ha         1 JXV       0.139000
     36 H11         -7.2570     1.3850    -3.2210 ho         1 JXV       0.408000
     37 H12          5.1520     0.0870     2.3450 h1         1 JXV       0.068700
     38 H13          4.0180     1.4380     2.5450 h1         1 JXV       0.068700
     39 H14         -0.1850    -0.1670    -4.5110 h5         1 JXV       0.057100
     40 H15         -9.3150     0.8530     2.7790 ha         1 JXV       0.132000
     41 H16         -8.3380     2.8700     1.7500 ha         1 JXV       0.132500
     42 H17          3.9060    -0.0930     4.4930 h1         1 JXV       0.068700
     43 H18          3.5110    -1.4400     3.4070 h1         1 JXV       0.068700
     44 H19         -4.6220     0.1990    -3.4830 hn         1 JXV       0.453800
     45 H8          -8.9700    -1.3540     1.7320 ha         1 JXV       0.132500
@<TRIPOS>BOND
     1    18    19 ar
     2    18    11 ar
     3    19    13 ar
     4    11    12 ar
     5    13    20 ar
     6    12    20 ar
     7    20    10 1
     8    10     9 1
     9    10    14 1
    10     9    24 1
    11    22    17 ar
    12    22    16 ar
    13    17    23 ar
    14    24    16 1
    15    16     8 ar
    16    23     7 ar
    17     8     7 ar
    18     7     1 1
    19     1     3 ar
    20     1     2 ar
    21     3     5 ar
    22     2     4 ar
    23     5     6 ar
    24     4     6 ar
    25     4    26 1
    26     6    25 1
    27    26    15 1
    28    25    21 1
    29    15    21 1
    30     2    27 1
    31     3    28 1
    32     5    29 1
    33     8    30 1
    34     9    31 1
    35     9    32 1
    36    10    33 1
    37    11    45 1
    38    12    34 1
    39    13    35 1
    40    14    36 1
    41    15    37 1
    42    15    38 1
    43    17    39 1
    44    18    40 1
    45    19    41 1
    46    21    42 1
    47    21    43 1
    48    24    44 1
@<TRIPOS>SUBSTRUCTURE
     1 JXV         1 TEMP              0 ****  ****    0 ROOT
