@<TRIPOS>MOLECULE
molecule
   68    71     1     0     0
SMALL
bcc


@<TRIPOS>ATOM
      1 O2           0.0000     0.0000     0.0000 oh         1 JY       -0.606800
      2 C1           3.4600     1.1760    -0.8740 c3         1 JY       -0.038200
      3 C2           1.9370     1.2440    -0.7290 c3         1 JY       -0.085400
      4 C3           1.4290     0.0000     0.0000 c3         1 JY        0.149100
      5 C4           1.9390     0.0000     1.4440 c3         1 JY       -0.046200
      6 C5           3.4530     0.0570     1.4160 ce         1 JY       -0.089200
      7 C6           4.2070    -0.7600     2.1800 cf         1 JY       -0.124000
      8 C7           5.6670    -0.6770     2.1250 cf         1 JY       -0.162000
      9 C8           6.4100    -1.4840     2.8810 c2         1 JY       -0.093400
     10 C9           5.7990    -2.5120     3.8210 c3         1 JY       -0.044200
     11 C10          4.0650     1.0530     0.5150 ce         1 JY       -0.084200
     12 C11          6.4310    -3.8860     3.6040 c3         1 JY       -0.078400
     13 C12          7.9670    -3.8090     3.5840 c3         1 JY       -0.065400
     14 C13          8.3740    -2.8740     2.4750 c3         1 JY       -0.060000
     15 C14          7.9100    -1.4420     2.8670 c3         1 JY       -0.035500
     16 C15          8.5640    -0.6020     1.7680 c3         1 JY       -0.078400
     17 C16          9.9800    -1.2330     1.6510 c3         1 JY       -0.081400
     18 C17          9.8530    -2.6880     2.1740 c3         1 JY       -0.054700
     19 C18          7.6450    -3.2660     1.1890 c3         1 JY       -0.093100
     20 C19          5.1000     1.8040     0.8940 c2         1 JY       -0.220000
     21 C20         10.3070    -3.6790     1.1020 c3         1 JY       -0.064700
     22 C21         10.1090    -5.1080     1.6110 c3         1 JY       -0.101100
     23 C22         11.7880    -3.4510     0.7890 c3         1 JY       -0.035100
     24 C23         12.5470    -4.9840    -2.5760 ca         1 JY       -0.114000
     25 C24         13.0540    -6.2170    -2.2130 ca         1 JY       -0.158000
     26 C25         13.1520    -6.5580    -0.8720 ca         1 JY        0.105100
     27 C26         12.7450    -5.6560     0.1020 ca         1 JY       -0.152000
     28 C27         12.2340    -4.4280    -0.2660 ca         1 JY       -0.065300
     29 C28         12.1370    -4.0910    -1.6050 ca         1 JY       -0.136000
     30 HO21        -0.3140    -0.8130    -0.3610 ho         1 JY        0.401000
     31 H11          3.8210     2.0800    -1.3490 hc         1 JY        0.050700
     32 H12          3.7310     0.3110    -1.4670 hc         1 JY        0.050700
     33 H21          1.6690     2.1270    -0.1610 hc         1 JY        0.053700
     34 H22          1.4850     1.2930    -1.7120 hc         1 JY        0.053700
     35 H31          1.7930    -0.8850    -0.5080 h1         1 JY        0.032700
     36 H41          1.5520     0.8670     1.9660 hc         1 JY        0.058700
     37 H42          1.6180    -0.9070     1.9430 hc         1 JY        0.058700
     38 H61          3.7300    -1.4800     2.8360 ha         1 JY        0.133000
     39 H71          6.1440     0.0420     1.4690 ha         1 JY        0.148000
     40 H91          4.7340    -2.5770     3.6330 hc         1 JY        0.049200
     41 H92          5.9670    -2.2020     4.8460 hc         1 JY        0.049200
     42 H111         6.0870    -4.2860     2.6580 hc         1 JY        0.043200
     43 H112         6.1230    -4.5460     4.4050 hc         1 JY        0.043200
     44 H121         8.3250    -3.4270     4.5320 hc         1 JY        0.046200
     45 H122         8.3790    -4.7940     3.4000 hc         1 JY        0.046200
     46 H141         8.2970    -1.1700     3.8420 hc         1 JY        0.065700
     47 H151         8.0220    -0.7040     0.8360 hc         1 JY        0.048700
     48 H152         8.6320     0.4360     2.0700 hc         1 JY        0.048700
     49 H161        10.6840    -0.6790     2.2610 hc         1 JY        0.043700
     50 H162        10.2990    -1.2370     0.6150 hc         1 JY        0.043700
     51 H171        10.4370    -2.8110     3.0780 hc         1 JY        0.053700
     52 H181         8.0860    -2.7410     0.3500 hc         1 JY        0.040700
     53 H182         7.7350    -4.3340     1.0340 hc         1 JY        0.040700
     54 H183         6.5980    -3.0000     1.2720 hc         1 JY        0.040700
     55 H191         5.5280     2.5240     0.2080 ha         1 JY        0.120500
     56 H192         5.5110     1.6950     1.8910 ha         1 JY        0.120500
     57 H201         9.7210    -3.5320     0.2030 hc         1 JY        0.062700
     58 H211        10.6660    -5.2440     2.5300 hc         1 JY        0.040367
     59 H212        10.4650    -5.8090     0.8660 hc         1 JY        0.040367
     60 H213         9.0560    -5.2820     1.7980 hc         1 JY        0.040367
     61 H221        11.9280    -2.4390     0.4270 hc         1 JY        0.050200
     62 H222        12.3740    -3.5970     1.6880 hc         1 JY        0.050200
     63 H231        12.4700    -4.7170    -3.6240 ha         1 JY        0.132000
     64 H241        13.3730    -6.9180    -2.9750 ha         1 JY        0.139000
     65 H261        12.8210    -5.9200     1.1500 ha         1 JY        0.142000
     66 H281        11.7400    -3.1250    -1.8910 ha         1 JY        0.131000
     67 HO11        14.5860    -7.7060    -0.4080 ho         1 JY        0.418000
     68 O1          13.6510    -7.7690    -0.5120 oh         1 JY       -0.523100
@<TRIPOS>BOND
     1     1     4 1
     2     1    30 1
     3     2     3 1
     4     2    11 1
     5     2    31 1
     6     2    32 1
     7     3     4 1
     8     3    33 1
     9     3    34 1
    10     4     5 1
    11     4    35 1
    12     5     6 1
    13     5    36 1
    14     5    37 1
    15     6     7 2
    16     6    11 1
    17     7     8 1
    18     7    38 1
    19     8     9 2
    20     8    39 1
    21     9    10 1
    22     9    15 1
    23    10    12 1
    24    10    40 1
    25    10    41 1
    26    11    20 2
    27    12    13 1
    28    12    42 1
    29    12    43 1
    30    13    14 1
    31    13    44 1
    32    13    45 1
    33    14    15 1
    34    14    18 1
    35    14    19 1
    36    15    16 1
    37    15    46 1
    38    16    17 1
    39    16    47 1
    40    16    48 1
    41    17    18 1
    42    17    49 1
    43    17    50 1
    44    18    21 1
    45    18    51 1
    46    19    52 1
    47    19    53 1
    48    19    54 1
    49    20    55 1
    50    20    56 1
    51    21    22 1
    52    21    23 1
    53    21    57 1
    54    22    58 1
    55    22    59 1
    56    22    60 1
    57    23    28 1
    58    23    61 1
    59    23    62 1
    60    24    25 ar
    61    24    29 ar
    62    24    63 1
    63    25    26 ar
    64    25    64 1
    65    26    27 ar
    66    26    68 1
    67    27    28 ar
    68    27    65 1
    69    28    29 ar
    70    29    66 1
    71    68    67 1
@<TRIPOS>SUBSTRUCTURE
     1 JY          1 TEMP              0 ****  ****    0 ROOT
