@<TRIPOS>MOLECULE
molecule
   30    32     1     0     0
SMALL
bcc


@<TRIPOS>ATOM
      1 C4           0.0000     0.0000     0.0000 ca         1 JY4      -0.288300
      2 C5          -2.4010    -0.0070    -0.5440 ca         1 JY4       0.294600
      3 C6          -1.8430     0.0050    -3.2790 ca         1 JY4       0.163100
      4 C7          -3.1660    -0.0030    -2.8250 ca         1 JY4       0.106100
      5 C8           1.3680     0.0000     0.0000 cc         1 JY4      -0.047300
      6 C10          2.2550     0.0010    -1.2190 c3         1 JY4      -0.035900
      7 C1          -0.7970     0.0050    -2.3760 ca         1 JY4      -0.220000
      8 C11         -0.2100     0.0180    -5.0080 c3         1 JY4       0.125700
      9 C12         -5.5140    -0.0130    -3.2000 c3         1 JY4       0.124700
     10 C2          -3.4470    -0.0070    -1.4780 ca         1 JY4      -0.197300
     11 C3          -1.0650     0.0000    -1.0120 ca         1 JY4      -0.031300
     12 C9          -0.4270    -0.0070     1.4100 ca         1 JY4       0.267300
     13 N13         -2.6490    -0.0110     0.7750 nb         1 JY4      -0.255000
     14 N14          1.7820     0.0000     1.2790 na         1 JY4       0.015800
     15 N15         -1.7450    -0.0120     1.6820 nb         1 JY4      -0.267000
     16 N16          0.6740    -0.0060     2.1340 nc         1 JY4      -0.215400
     17 O17         -1.5840     0.0100    -4.6120 os         1 JY4      -0.304900
     18 O18         -4.1850    -0.0030    -3.7250 os         1 JY4      -0.312900
     19 H1           3.2930    -0.0030    -0.9110 hc         1 JY4       0.056033
     20 H2           2.0520    -0.8820    -1.8140 hc         1 JY4       0.056033
     21 H3           2.0570     0.8870    -1.8100 hc         1 JY4       0.056033
     22 H4           0.2280     0.0120    -2.7290 ha         1 JY4       0.145000
     23 H5           0.2820    -0.8660    -4.6210 h1         1 JY4       0.043367
     24 H6           0.2740     0.9030    -4.6140 h1         1 JY4       0.043367
     25 H7          -0.1460     0.0230    -6.0890 h1         1 JY4       0.043367
     26 H8          -5.6570    -0.9000    -2.5960 h1         1 JY4       0.044700
     27 H9          -6.2250    -0.0140    -4.0180 h1         1 JY4       0.044700
     28 H10         -5.6680     0.8690    -2.5900 h1         1 JY4       0.044700
     29 H11         -4.4760    -0.0140    -1.1390 ha         1 JY4       0.163000
     30 H12          2.7380     0.0040     1.5750 hn         1 JY4       0.337700
@<TRIPOS>BOND
     1     8    17 1
     2     6     5 1
     3    17     3 1
     4     5    14 1
     5     5     1 2
     6    14    16 1
     7     7     3 ar
     8     7    11 ar
     9     3     4 ar
    10     1    11 ar
    11     1    12 ar
    12    11     2 ar
    13    16    12 2
    14     4    18 1
    15     4    10 ar
    16    12    15 ar
    17    18     9 1
    18     2    10 ar
    19     2    13 ar
    20    15    13 ar
    21     6    19 1
    22     6    20 1
    23     6    21 1
    24     7    22 1
    25     8    23 1
    26     8    24 1
    27     8    25 1
    28     9    26 1
    29     9    27 1
    30     9    28 1
    31    10    29 1
    32    14    30 1
@<TRIPOS>SUBSTRUCTURE
     1 JY4         1 TEMP              0 ****  ****    0 ROOT
