@<TRIPOS>MOLECULE
molecule
   38    41     1     0     0
SMALL
bcc


@<TRIPOS>ATOM
      1 N1           0.0000     0.0000     0.0000 nb         1 JY7      -0.217000
      2 N3          -0.7100    -0.0010    -3.5590 na         1 JY7      -0.008800
      3 C4           3.4230    -0.0000    -1.2620 ca         1 JY7      -0.229000
      4 C5           2.0290    -0.0000    -1.2390 ca         1 JY7       0.005700
      5 C6           1.3380     0.0000     0.0000 ca         1 JY7       0.259600
      6 C7           1.2190    -0.0010    -2.4530 ca         1 JY7      -0.338200
      7 C8          -0.1770    -0.0000    -2.3000 ca         1 JY7       0.407800
      8 C10         -2.1410    -0.0000    -3.8730 c3         1 JY7       0.069600
      9 C13          4.4230     0.9470    -6.0330 ca         1 JY7       0.418200
     10 C15          3.7650    -0.9860    -4.2240 ca         1 JY7      -0.236300
     11 C17          2.2590     0.0010     3.5650 c3         1 JY7       0.120700
     12 C1           4.1240     0.0000    -0.0760 ca         1 JY7       0.213900
     13 C11          2.8210    -0.0000    -4.5290 ca         1 JY7      -0.065900
     14 C12          3.1700     0.9850    -5.4580 ca         1 JY7      -0.176600
     15 C14          4.9950    -0.9490    -4.8470 ca         1 JY7       0.411200
     16 C16          2.1920     2.0720    -5.8240 c3         1 JY7      -0.048800
     17 C2           3.4560     0.0000     1.1450 ca         1 JY7      -0.298000
     18 C3           2.0790     0.0000     1.1960 ca         1 JY7       0.171800
     19 C9           1.4850    -0.0000    -3.8850 cc         1 JY7       0.432500
     20 F1           5.4760     0.0010    -0.0980 f          1 JY7      -0.129900
     21 N2          -0.7020    -0.0000    -1.0730 nb         1 JY7      -0.330000
     22 N4           0.3230    -0.0010    -4.5010 nd         1 JY7      -0.480100
     23 N5           5.2850    -0.0020    -5.7190 nb         1 JY7      -0.680000
     24 O1           1.4400     0.0010     2.3940 os         1 JY7      -0.290900
     25 H1           3.9520    -0.0000    -2.2080 ha         1 JY7       0.166000
     26 H2          -2.6100    -0.8650    -3.4200 h1         1 JY7       0.061367
     27 H3          -2.5960     0.9020    -3.4830 h1         1 JY7       0.061367
     28 H4          -2.2760    -0.0370    -4.9470 h1         1 JY7       0.061367
     29 H5           4.7030     1.7060    -6.7540 h4         1 JY7       0.028100
     30 H6           3.5340    -1.7670    -3.5100 ha         1 JY7       0.149000
     31 H7           2.8840    -0.8840     3.5690 h1         1 JY7       0.049033
     32 H8           1.6290     0.0010     4.4470 h1         1 JY7       0.049033
     33 H9           2.8840     0.8850     3.5680 h1         1 JY7       0.049033
     34 H10          5.7330    -1.7080    -4.6180 h4         1 JY7       0.028100
     35 H11          1.3340     1.6350    -6.3200 hc         1 JY7       0.052033
     36 H12          2.6720     2.7800    -6.4890 hc         1 JY7       0.052033
     37 H13          1.8680     2.5830    -4.9250 hc         1 JY7       0.052033
     38 H14          4.0260     0.0010     2.0660 ha         1 JY7       0.158000
@<TRIPOS>BOND
     1    11    24 1
     2    20    12 1
     3    17    12 ar
     4    17    18 ar
     5    12     3 ar
     6    24    18 1
     7    18     5 ar
     8     3     4 ar
     9     5     4 ar
    10     5     1 ar
    11     4     6 ar
    12     1    21 ar
    13    16    14 1
    14     9    14 ar
    15     9    23 ar
    16    14    13 ar
    17     6     7 ar
    18     6    19 1
    19    23    15 ar
    20    21     7 ar
    21    13    19 1
    22    13    10 ar
    23    15    10 ar
    24     7     2 1
    25    19    22 2
    26     2    22 1
    27     2     8 1
    28     3    25 1
    29     8    26 1
    30     8    27 1
    31     8    28 1
    32     9    29 1
    33    10    30 1
    34    11    31 1
    35    11    32 1
    36    11    33 1
    37    15    34 1
    38    16    35 1
    39    16    36 1
    40    16    37 1
    41    17    38 1
@<TRIPOS>SUBSTRUCTURE
     1 JY7         1 TEMP              0 ****  ****    0 ROOT
