@<TRIPOS>MOLECULE
molecule
   13    12     1     0     0
SMALL
bcc


@<TRIPOS>ATOM
      1 C01          0.0000     0.0000     0.0000 c3         1 JYD      -0.150400
      2 C02          1.5300     0.0000     0.0000 c3         1 JYD       0.004400
      3 C03          2.0310     0.0000     1.4210 c          1 JYD       0.893600
      4 C07         -0.5030     0.1250    -1.4160 c          1 JYD       0.886600
      5 O04          3.1530     0.6680     1.7370 o          1 JYD      -0.871300
      6 O05          1.4250    -0.6010     2.2760 o          1 JYD      -0.871300
      7 O08          0.2830     0.2050    -2.3310 o          1 JYD      -0.878300
      8 O09         -1.8220     0.1450    -1.6600 o          1 JYD      -0.878300
      9 S06          2.1350    -1.4800    -0.8560 sh         1 JYD      -0.449900
     10 H1          -0.3610    -0.9260     0.4310 hc         1 JYD       0.045700
     11 H2          -0.3610     0.8360     0.5860 hc         1 JYD       0.045700
     12 H3           1.8910     0.8850    -0.5100 h1         1 JYD       0.060700
     13 H6           3.4030    -1.3010    -1.2060 hs         1 JYD       0.162800
@<TRIPOS>BOND
     1     6     3 1
     2     5     3 1
     3     3     2 1
     4     2     9 1
     5     2     1 1
     6     1     4 1
     7     4     7 1
     8     4     8 1
     9     1    10 1
    10     1    11 1
    11     2    12 1
    12     9    13 1
@<TRIPOS>SUBSTRUCTURE
     1 JYD         1 TEMP              0 ****  ****    0 ROOT
