@<TRIPOS>MOLECULE
JYG
   55    60     1     0     0
SMALL
bcc


@<TRIPOS>ATOM
      1 C01          0.0000     0.0000     0.0000 c3         1 JYG      -0.014100
      2 C02          1.5300     0.0000     0.0000 c3         1 JYG       0.148000
      3 N03          2.0350     0.0000     1.3780 ns         1 JYG      -0.211900
      4 C04          2.7650    -1.1150     1.5610 c          1 JYG       0.682100
      5 O05          3.3230    -1.4180     2.5980 o          1 JYG      -0.683500
      6 C06          2.7890    -1.9160     0.3290 cc         1 JYG      -0.257600
      7 C07          3.2820    -3.1080    -0.2620 cc         1 JYG      -0.039000
      8 C08          2.8290    -3.1340    -1.5430 cd         1 JYG      -0.278300
      9 N09          2.0770    -2.0060    -1.7620 na         1 JYG       0.502900
     10 C10          2.0500    -1.2660    -0.6380 cd         1 JYG      -0.383600
     11 C11          3.0990    -4.1980    -2.5330 ca         1 JYG      -0.024000
     12 C12          2.0970    -4.6200    -3.4000 ca         1 JYG      -0.062000
     13 C13          2.3420    -5.6170    -4.3300 ca         1 JYG      -0.155000
     14 C14          3.5830    -6.2100    -4.4180 ca         1 JYG       0.002000
     15 C15          4.6080    -5.8060    -3.5610 ca         1 JYG      -0.256600
     16 C16          5.9460    -6.4100    -3.6170 c          1 JYG       0.646100
     17 O17          6.2090    -7.2880    -4.4190 o          1 JYG      -0.664500
     18 N18          6.8740    -5.9530    -2.7470 n          1 JYG       0.041700
     19 C19          6.5620    -4.9670    -1.8560 cc         1 JYG       0.421800
     20 N20          7.5340    -4.5330    -0.9910 nu         1 JYG      -0.415200
     21 C21          7.2510    -3.4400    -0.0580 cx         1 JYG       0.059200
     22 C22          6.3830    -2.3080    -0.6130 c3         1 JYG       0.009900
     23 C23          7.0860    -3.7970     1.4200 cx         1 JYG      -0.082900
     24 C24          8.3430    -3.0660     0.9440 cx         1 JYG      -0.082900
     25 N25          5.3750    -4.4160    -1.7890 nd         1 JYG      -0.644100
     26 C26          4.3760    -4.7880    -2.6110 ca         1 JYG       0.228400
     27 C27          8.2260    -6.5200    -2.7590 cx         1 JYG      -0.112600
     28 C28          9.2320    -5.8060    -3.6630 c3         1 JYG       0.040900
     29 C29          8.3560    -8.0370    -2.6160 cx         1 JYG      -0.061400
     30 C30          8.7510    -7.1220    -1.4540 cx         1 JYG      -0.061400
     31 H1          -0.3610     0.8760     0.5250 hc         1 JYG       0.011033
     32 H2          -0.3610     0.0170    -1.0210 hc         1 JYG       0.011033
     33 H3          -0.3610    -0.8930     0.4960 hc         1 JYG       0.011033
     34 H4           1.9080     0.8650    -0.5320 h1         1 JYG       0.022700
     35 H5           1.8660     0.7090     2.0640 hn         1 JYG       0.203500
     36 H6           3.9030    -3.8550     0.2170 ha         1 JYG       0.150000
     37 H7           1.6210    -1.7700    -2.6210 hn         1 JYG       0.097700
     38 H8           1.1150    -4.1660    -3.3460 ha         1 JYG       0.095000
     39 H9           1.5490    -5.9330    -4.9970 ha         1 JYG       0.107000
     40 H10          3.7620    -6.9880    -5.1500 ha         1 JYG       0.120000
     41 H11          8.4490    -4.9370    -1.0250 hn         1 JYG       0.306800
     42 H12          6.4850    -2.2700    -1.6910 hc         1 JYG       0.026700
     43 H13          6.7050    -1.3650    -0.1870 hc         1 JYG       0.026700
     44 H14          5.3470    -2.4860    -0.3540 hc         1 JYG       0.026700
     45 H15          6.3750    -3.1930     1.9700 hc         1 JYG       0.052700
     46 H16          7.2190    -4.8430     1.6660 hc         1 JYG       0.052700
     47 H17          9.2440    -3.6660     0.9000 hc         1 JYG       0.052700
     48 H18          8.4000    -2.0160     1.2040 hc         1 JYG       0.052700
     49 H19          9.5660    -6.4860    -4.4380 hc         1 JYG       0.015033
     50 H20         10.0830    -5.4850    -3.0740 hc         1 JYG       0.015033
     51 H21          8.7610    -4.9430    -4.1180 hc         1 JYG       0.015033
     52 H22          7.4250    -8.5770    -2.4900 hc         1 JYG       0.058950
     53 H23          9.1800    -8.4890    -3.1560 hc         1 JYG       0.058950
     54 H24          8.0610    -7.1020    -0.6190 hc         1 JYG       0.058950
     55 H25          9.8150    -7.0140    -1.2850 hc         1 JYG       0.058950
@<TRIPOS>BOND
     1     1     2 1   
     2     1    31 1   
     3     1    32 1   
     4     1    33 1   
     5     2     3 1   
     6     2    10 1   
     7     2    34 1   
     8     3     4 1   
     9     3    35 1   
    10     4     5 2   
    11     4     6 1   
    12     6     7 1   
    13     6    10 2   
    14     7     8 2   
    15     7    36 1   
    16     8     9 1   
    17     8    11 1   
    18     9    10 1   
    19     9    37 1   
    20    11    12 ar  
    21    11    26 ar  
    22    12    13 ar  
    23    12    38 1   
    24    13    14 ar  
    25    13    39 1   
    26    14    15 ar  
    27    14    40 1   
    28    15    16 1   
    29    15    26 ar  
    30    16    17 2   
    31    16    18 1   
    32    18    19 1   
    33    18    27 1   
    34    19    20 1   
    35    19    25 2   
    36    20    21 1   
    37    20    41 1   
    38    21    22 1   
    39    21    23 1   
    40    21    24 1   
    41    22    42 1   
    42    22    43 1   
    43    22    44 1   
    44    23    24 1   
    45    23    45 1   
    46    23    46 1   
    47    24    47 1   
    48    24    48 1   
    49    25    26 1   
    50    27    28 1   
    51    27    29 1   
    52    27    30 1   
    53    28    49 1   
    54    28    50 1   
    55    28    51 1   
    56    29    30 1   
    57    29    52 1   
    58    29    53 1   
    59    30    54 1   
    60    30    55 1   
@<TRIPOS>SUBSTRUCTURE
     1 JYG         1 TEMP              0 ****  ****    0 ROOT
