@<TRIPOS>MOLECULE
molecule
   44    47     1     0     0
SMALL
bcc


@<TRIPOS>ATOM
      1 CAJ          0.0000     0.0000     0.0000 ca         1 JYH      -0.170500
      2 CAM          1.3760     0.0000     0.0000 ca         1 JYH      -0.088500
      3 CAW          2.0730     0.0000     1.2120 ca         1 JYH      -0.110600
      4 CAT          3.5480     0.0000     1.2170 c          1 JYH       0.883200
      5 OAC          4.2180    -0.0010     2.3860 o          1 JYH      -0.838800
      6 OAA          4.1580     0.0000     0.1670 o          1 JYH      -0.838800
      7 CAN          1.3690    -0.0010     2.4200 ca         1 JYH      -0.088500
      8 CAK         -0.0070    -0.0010     2.4120 ca         1 JYH      -0.170500
      9 CAV         -0.6980    -0.0000     1.2040 ca         1 JYH       0.010600
     10 NAS         -2.0910     0.0050     1.1990 ns         1 JYH      -0.458100
     11 CAU         -2.7660     0.6510     2.1700 c          1 JYH       0.658700
     12 OAB         -2.1620     1.3100     2.9940 o          1 JYH      -0.589100
     13 CAX         -4.2380     0.5610     2.2320 ca         1 JYH      -0.129600
     14 CAR         -4.9280     1.2320     3.2300 ca         1 JYH      -0.055000
     15 CBB         -6.3240     1.1420     3.2840 ca         1 JYH      -0.029000
     16 CAO         -4.9320    -0.2030     1.2770 ca         1 JYH      -0.122000
     17 CAQ         -6.2850    -0.3010     1.3140 ca         1 JYH      -0.142000
     18 CBA         -7.0120     0.3650     2.3190 ca         1 JYH      -0.026000
     19 CAP         -8.4130     0.2760     2.3760 ca         1 JYH      -0.125000
     20 CAG         -9.1010     0.9320     3.3520 ca         1 JYH      -0.124000
     21 CAL         -8.4420     1.6980     4.3070 ca         1 JYH      -0.130000
     22 CAZ         -7.0620     1.8140     4.2880 cp         1 JYH      -0.010000
     23 CAY         -6.3670     2.6310     5.3080 cp         1 JYH      -0.035000
     24 CAH         -6.7890     3.9350     5.5680 ca         1 JYH      -0.107000
     25 CAE         -6.1360     4.6910     6.5210 ca         1 JYH      -0.136000
     26 CAD         -5.0650     4.1590     7.2160 ca         1 JYH      -0.127000
     27 CAF         -4.6420     2.8670     6.9630 ca         1 JYH      -0.136000
     28 CAI         -5.2900     2.0980     6.0170 ca         1 JYH      -0.107000
     29 H1          -0.5410     0.0000    -0.9390 ha         1 JYH       0.119000
     30 H2           1.9190     0.0000    -0.9380 ha         1 JYH       0.153000
     31 H4           1.9050    -0.0020     3.3610 ha         1 JYH       0.153000
     32 H5          -0.5540    -0.0010     3.3470 ha         1 JYH       0.119000
     33 H6          -2.5910    -0.4500     0.4600 hn         1 JYH       0.310500
     34 H7          -4.4400     2.1950     3.3220 ha         1 JYH       0.175000
     35 H8          -4.6480    -0.8690     0.4710 ha         1 JYH       0.134000
     36 H9          -6.7490    -0.8990     0.5390 ha         1 JYH       0.129000
     37 H10         -8.9470    -0.3160     1.6430 ha         1 JYH       0.128000
     38 H11        -10.1810     0.8550     3.3850 ha         1 JYH       0.124000
     39 H12         -9.0130     2.2100     5.0720 ha         1 JYH       0.132000
     40 H13         -7.5790     4.3770     4.9730 ha         1 JYH       0.138500
     41 H14         -6.4620     5.7040     6.7230 ha         1 JYH       0.131000
     42 H15         -4.5550     4.7570     7.9610 ha         1 JYH       0.126000
     43 H16         -3.8050     2.4550     7.5130 ha         1 JYH       0.131000
     44 H17         -5.0320     1.0750     6.2640 ha         1 JYH       0.138500
@<TRIPOS>BOND
     1     6     4 1
     2     4     5 1
     3     4     3 1
     4     2     3 ar
     5     2     1 ar
     6     3     7 ar
     7     1     9 ar
     8    26    27 ar
     9    26    25 ar
    10    27    28 ar
    11    12    11 2
    12     7     8 ar
    13    25    24 ar
    14     9     8 ar
    15     9    10 1
    16    28    23 ar
    17    11    10 1
    18    11    13 1
    19    24    23 ar
    20    23    22 1
    21    14    13 ar
    22    14    15 ar
    23    13    16 ar
    24    22    15 ar
    25    22    21 ar
    26    15    18 ar
    27    16    17 ar
    28    21    20 ar
    29    18    17 ar
    30    18    19 ar
    31    20    19 ar
    32     1    29 1
    33     2    30 1
    34     7    31 1
    35     8    32 1
    36    10    33 1
    37    14    34 1
    38    16    35 1
    39    17    36 1
    40    19    37 1
    41    20    38 1
    42    21    39 1
    43    24    40 1
    44    25    41 1
    45    26    42 1
    46    27    43 1
    47    28    44 1
@<TRIPOS>SUBSTRUCTURE
     1 JYH         1 TEMP              0 ****  ****    0 ROOT
