@<TRIPOS>MOLECULE
JYH
   44    47     1     0     0
SMALL
bcc


@<TRIPOS>ATOM
      1 CAJ          0.0000     0.0000     0.0000 ca         1 JYH      -0.146500
      2 CAM          1.3760     0.0000     0.0000 ca         1 JYH      -0.061000
      3 CAW          2.0730     0.0000     1.2120 ca         1 JYH      -0.103600
      4 CAT          3.5480     0.0000     1.2170 c          1 JYH       0.974200
      5 OAC          4.2180    -0.0010     2.3860 o          1 JYH      -0.885300
      6 OAA          4.1580     0.0000     0.1670 o          1 JYH      -0.885300
      7 CAN          1.3690    -0.0010     2.4200 ca         1 JYH      -0.061000
      8 CAK         -0.0070    -0.0010     2.4120 ca         1 JYH      -0.146500
      9 CAV         -0.6980    -0.0000     1.2040 ca         1 JYH      -0.145400
     10 NAS         -2.0910     0.0050     1.1990 ns         1 JYH      -0.004100
     11 CAU         -2.7660     0.6510     2.1700 c          1 JYH       0.558700
     12 OAB         -2.1620     1.3100     2.9940 o          1 JYH      -0.634100
     13 CAX         -4.2380     0.5610     2.2320 ca         1 JYH      -0.131600
     14 CAR         -4.9280     1.2320     3.2300 ca         1 JYH      -0.033000
     15 CBB         -6.3240     1.1420     3.2840 ca         1 JYH      -0.026000
     16 CAO         -4.9320    -0.2030     1.2770 ca         1 JYH      -0.104000
     17 CAQ         -6.2850    -0.3010     1.3140 ca         1 JYH      -0.117000
     18 CBA         -7.0120     0.3650     2.3190 ca         1 JYH      -0.027000
     19 CAP         -8.4130     0.2760     2.3760 ca         1 JYH      -0.099000
     20 CAG         -9.1010     0.9320     3.3520 ca         1 JYH      -0.099000
     21 CAL         -8.4420     1.6980     4.3070 ca         1 JYH      -0.109000
     22 CAZ         -7.0620     1.8140     4.2880 cp         1 JYH      -0.003000
     23 CAY         -6.3670     2.6310     5.3080 cp         1 JYH      -0.027000
     24 CAH         -6.7890     3.9350     5.5680 ca         1 JYH      -0.083500
     25 CAE         -6.1360     4.6910     6.5210 ca         1 JYH      -0.110000
     26 CAD         -5.0650     4.1590     7.2160 ca         1 JYH      -0.101000
     27 CAF         -4.6420     2.8670     6.9630 ca         1 JYH      -0.110000
     28 CAI         -5.2900     2.0980     6.0170 ca         1 JYH      -0.083500
     29 H1          -0.5410     0.0000    -0.9390 ha         1 JYH       0.103000
     30 H2           1.9190     0.0000    -0.9380 ha         1 JYH       0.125500
     31 H4           1.9050    -0.0020     3.3610 ha         1 JYH       0.125500
     32 H5          -0.5540    -0.0010     3.3470 ha         1 JYH       0.103000
     33 H6          -2.5910    -0.4500     0.4600 hn         1 JYH       0.155500
     34 H7          -4.4400     2.1950     3.3220 ha         1 JYH       0.146000
     35 H8          -4.6480    -0.8690     0.4710 ha         1 JYH       0.111000
     36 H9          -6.7490    -0.8990     0.5390 ha         1 JYH       0.104000
     37 H10         -8.9470    -0.3160     1.6430 ha         1 JYH       0.102000
     38 H11        -10.1810     0.8550     3.3850 ha         1 JYH       0.096000
     39 H12         -9.0130     2.2100     5.0720 ha         1 JYH       0.106000
     40 H13         -7.5790     4.3770     4.9730 ha         1 JYH       0.111500
     41 H14         -6.4620     5.7040     6.7230 ha         1 JYH       0.103500
     42 H15         -4.5550     4.7570     7.9610 ha         1 JYH       0.099000
     43 H16         -3.8050     2.4550     7.5130 ha         1 JYH       0.103500
     44 H17         -5.0320     1.0750     6.2640 ha         1 JYH       0.111500
@<TRIPOS>BOND
     1     1     2 ar  
     2     1     9 ar  
     3     1    29 1   
     4     2     3 ar  
     5     2    30 1   
     6     3     4 1   
     7     3     7 ar  
     8     4     5 1   
     9     4     6 1   
    10     7     8 ar  
    11     7    31 1   
    12     8     9 ar  
    13     8    32 1   
    14     9    10 1   
    15    10    11 1   
    16    10    33 1   
    17    11    12 2   
    18    11    13 1   
    19    13    14 ar  
    20    13    16 ar  
    21    14    15 ar  
    22    14    34 1   
    23    15    18 ar  
    24    15    22 ar  
    25    16    17 ar  
    26    16    35 1   
    27    17    18 ar  
    28    17    36 1   
    29    18    19 ar  
    30    19    20 ar  
    31    19    37 1   
    32    20    21 ar  
    33    20    38 1   
    34    21    22 ar  
    35    21    39 1   
    36    22    23 1   
    37    23    24 ar  
    38    23    28 ar  
    39    24    25 ar  
    40    24    40 1   
    41    25    26 ar  
    42    25    41 1   
    43    26    27 ar  
    44    26    42 1   
    45    27    28 ar  
    46    27    43 1   
    47    28    44 1   
@<TRIPOS>SUBSTRUCTURE
     1 JYH         1 TEMP              0 ****  ****    0 ROOT
