@<TRIPOS>MOLECULE
JYI
   52    55     1     0     0
SMALL
bcc


@<TRIPOS>ATOM
      1 CAM        -0.4790   -0.7290   -0.5750 ca        1 JYI     -0.119000
      2 CAJ         0.7880   -0.8570   -1.1400 ca        1 JYI     -0.135000
      3 CAI         1.8690   -0.1600   -0.6030 ca        1 JYI     -0.135000
      4 CAK         1.6790    0.6700    0.5020 ca        1 JYI     -0.135000
      5 CAN         0.4130    0.8060    1.0670 ca        1 JYI     -0.119000
      6 CAY        -0.6790    0.1050    0.5340 ca        1 JYI     -0.041800
      7 CAV        -2.0070    0.2120    1.1440 ce        1 JYI     -0.006400
      8 CBB        -2.5530    1.5300    1.4680 ca        1 JYI     -0.058800
      9 CAS        -2.0230    2.6910    0.8970 ca        1 JYI     -0.118000
     10 CAH        -2.7260   -0.8950    1.4220 c2        1 JYI     -0.158200
     11 CAT        -4.0610   -0.8280    2.0540 c3        1 JYI     -0.039200
     12 CBD        -4.2370    0.3870    2.9760 c3        1 JYI     -0.001700
     13 CAA        -3.5300    0.1270    4.3030 c3        1 JYI     -0.086100
     14 CAB        -5.7310    0.5500    3.2400 c3        1 JYI     -0.086100
     15 CBC        -3.6510    1.6240    2.3500 ca        1 JYI     -0.064300
     16 CAQ        -4.1590    2.8890    2.6620 ca        1 JYI     -0.130000
     17 CAL        -3.6160    4.0420    2.1010 ca        1 JYI     -0.100000
     18 CAW        -2.5400    3.9570    1.2070 ca        1 JYI     -0.043800
     19 CAF        -1.9710    5.1270    0.5600 ce        1 JYI     -0.144200
     20 CAG        -1.9190    6.3910    1.0020 cf        1 JYI     -0.058200
     21 CBA        -2.3580    6.9300    2.2790 ca        1 JYI     -0.105800
     22 CAP        -1.9920    6.3130    3.4850 ca        1 JYI     -0.134000
     23 CAO        -2.3570    6.8650    4.7090 ca        1 JYI     -0.112000
     24 CAZ        -3.1060    8.0440    4.7620 ca        1 JYI     -0.108600
     25 CAU        -3.5140    8.6400    6.1060 c         1 JYI      0.908200
     26 OAD        -4.1890    9.7070    6.0950 o         1 JYI     -0.822300
     27 OAC        -3.1540    8.0280    7.1490 o         1 JYI     -0.822300
     28 CAR        -3.4800    8.6710    3.5710 ca        1 JYI     -0.106000
     29 CAX        -3.1030    8.1210    2.3450 ca        1 JYI      0.013400
     30 CL         -3.5800    8.9190    0.9050 cl        1 JYI     -0.150400
     31 H1         -1.3310   -1.2780   -1.0010 ha        1 JYI      0.140000
     32 H2          0.9340   -1.5100   -2.0130 ha        1 JYI      0.127500
     33 H3          2.8690   -0.2630   -1.0490 ha        1 JYI      0.125000
     34 H4          2.5290    1.2230    0.9280 ha        1 JYI      0.127500
     35 H5          0.2610    1.4660    1.9350 ha        1 JYI      0.140000
     36 H6         -1.1820    2.6110    0.1900 ha        1 JYI      0.134000
     37 H7         -2.3490   -1.8990    1.1750 ha        1 JYI      0.122000
     38 H8         -4.2480   -1.7600    2.6510 hc        1 JYI      0.047700
     39 H9         -4.8380   -0.7880    1.2420 hc        1 JYI      0.047700
     40 H10        -4.0010   -0.7400    4.8250 hc        1 JYI      0.037700
     41 H11        -3.6030    1.0270    4.9600 hc        1 JYI      0.037700
     42 H12        -2.4520   -0.1010    4.1250 hc        1 JYI      0.037700
     43 H13        -6.2440    0.9670    2.3420 hc        1 JYI      0.037700
     44 H14        -6.1840   -0.4420    3.4850 hc        1 JYI      0.037700
     45 H15        -5.9070    1.2340    4.1050 hc        1 JYI      0.037700
     46 H16        -4.9990    2.9890    3.3660 ha        1 JYI      0.137000
     47 H17        -4.0250    5.0300    2.3680 ha        1 JYI      0.162000
     48 H18        -1.5360    4.9090   -0.4340 ha        1 JYI      0.112000
     49 H19        -1.4790    7.1550    0.3300 ha        1 JYI      0.122000
     50 H20        -1.4090    5.3810    3.4480 ha        1 JYI      0.122000
     51 H21        -2.0700    6.3870    5.6600 ha        1 JYI      0.159000
     52 H23        -4.0720    9.6010    3.6320 ha        1 JYI      0.170000
@<TRIPOS>BOND
     1    1    2 ar  
     2    1    6 ar  
     3    1   31 1   
     4    2    3 ar  
     5    2   32 1   
     6    3    4 ar  
     7    3   33 1   
     8    4    5 ar  
     9    4   34 1   
    10    5    6 ar  
    11    5   35 1   
    12    6    7 1   
    13    7    8 1   
    14    7   10 2   
    15    8    9 ar  
    16    8   15 ar  
    17    9   18 ar  
    18    9   36 1   
    19   10   11 1   
    20   10   37 1   
    21   11   12 1   
    22   11   38 1   
    23   11   39 1   
    24   12   13 1   
    25   12   14 1   
    26   12   15 1   
    27   13   40 1   
    28   13   41 1   
    29   13   42 1   
    30   14   43 1   
    31   14   44 1   
    32   14   45 1   
    33   15   16 ar  
    34   16   17 ar  
    35   16   46 1   
    36   17   18 ar  
    37   17   47 1   
    38   18   19 1   
    39   19   20 2   
    40   19   48 1   
    41   20   21 1   
    42   20   49 1   
    43   21   22 ar  
    44   21   29 ar  
    45   22   23 ar  
    46   22   50 1   
    47   23   24 ar  
    48   23   51 1   
    49   24   25 1   
    50   24   28 ar  
    51   25   26 1   
    52   25   27 1   
    53   28   29 ar  
    54   28   52 1   
    55   29   30 1   
@<TRIPOS>SUBSTRUCTURE
     1 JYI         1 TEMP              0 ****  ****    0 ROOT
