@<TRIPOS>MOLECULE
molecule
   52    55     1     0     0
SMALL
bcc


@<TRIPOS>ATOM
      1 CAM          0.0000     0.0000     0.0000 ca         1 JYI      -0.112500
      2 CAJ          1.3800     0.0000     0.0000 ca         1 JYI      -0.131500
      3 CAI          2.0740     0.0000     1.1960 ca         1 JYI      -0.130000
      4 CAK          1.3910    -0.0010     2.3990 ca         1 JYI      -0.131500
      5 CAN          0.0100    -0.0000     2.4110 ca         1 JYI      -0.112500
      6 CAY         -0.6950     0.0060     1.2090 ca         1 JYI      -0.044800
      7 CAV         -2.1770     0.0070     1.2150 ce         1 JYI      -0.012400
      8 CBB         -2.9260     1.1700     1.7530 ca         1 JYI      -0.036800
      9 CAS         -2.3120     2.4080     1.8900 ca         1 JYI      -0.115000
     10 CAH         -2.8560    -1.0400     0.7310 c2         1 JYI      -0.164200
     11 CAT         -4.3600    -1.0440     0.7180 c3         1 JYI      -0.032200
     12 CBD         -4.9120    -0.3450     1.9570 c3         1 JYI      -0.014700
     13 CAA         -4.6230    -1.1970     3.1940 c3         1 JYI      -0.080600
     14 CAB         -6.4250    -0.1660     1.8070 c3         1 JYI      -0.080600
     15 CBC         -4.2620     1.0040     2.1220 ca         1 JYI      -0.080300
     16 CAQ         -4.9780     2.0710     2.6270 ca         1 JYI      -0.123000
     17 CAL         -4.3740     3.3040     2.7760 ca         1 JYI      -0.131000
     18 CAW         -3.0410     3.4850     2.3990 ca         1 JYI      -0.040800
     19 CAF         -2.4020     4.8040     2.5480 ce         1 JYI      -0.166200
     20 CAG         -3.1050     5.8390     3.0380 cf         1 JYI      -0.061200
     21 CBA         -2.4670     7.1570     3.1880 ca         1 JYI      -0.100800
     22 CAP         -1.1290     7.3320     2.8210 ca         1 JYI      -0.130000
     23 CAO         -0.5350     8.5540     2.9600 ca         1 JYI      -0.111000
     24 CAZ         -1.2610     9.6350     3.4690 ca         1 JYI      -0.075600
     25 CAU         -0.6160    10.9530     3.6160 c          1 JYI       0.878200
     26 OAD         -1.3150    11.9950     4.1070 o          1 JYI      -0.828300
     27 OAC          0.5480    11.0990     3.2960 o          1 JYI      -0.828300
     28 CAR         -2.6000     9.4670     3.8370 ca         1 JYI      -0.093000
     29 CAX         -3.2020     8.2380     3.6930 ca         1 JYI       0.027400
     30 Cl          -4.8650     8.0260     4.1420 cl         1 JYI      -0.155400
     31 H1          -0.5430     0.0020    -0.9380 ha         1 JYI       0.135500
     32 H2           1.9200    -0.0020    -0.9390 ha         1 JYI       0.127500
     33 H3           3.1580    -0.0000     1.1910 ha         1 JYI       0.125000
     34 H4           1.9400    -0.0030     3.3330 ha         1 JYI       0.127500
     35 H5          -0.5240     0.0020     3.3530 ha         1 JYI       0.135500
     36 H6          -1.5240     2.7910     1.2530 ha         1 JYI       0.145000
     37 H7          -2.3160    -1.8940     0.3420 ha         1 JYI       0.126000
     38 H8          -4.6980    -0.5080    -0.1600 hc         1 JYI       0.051200
     39 H9          -4.7010    -2.0720     0.7210 hc         1 JYI       0.051200
     40 H10         -5.1650    -2.1330     3.1220 hc         1 JYI       0.036200
     41 H11         -3.5610    -1.3980     3.2540 hc         1 JYI       0.036200
     42 H12         -4.9400    -0.6640     4.0820 hc         1 JYI       0.036200
     43 H13         -6.8470     0.1470     2.7550 hc         1 JYI       0.036200
     44 H14         -6.8720    -1.1050     1.5050 hc         1 JYI       0.036200
     45 H15         -6.6270     0.5880     1.0560 hc         1 JYI       0.036200
     46 H16         -6.0150     1.9400     2.9120 ha         1 JYI       0.128000
     47 H17         -4.9360     4.1330     3.1890 ha         1 JYI       0.138000
     48 H18         -1.3660     4.9390     2.2630 ha         1 JYI       0.138000
     49 H19         -4.1410     5.7030     3.3230 ha         1 JYI       0.134000
     50 H20         -0.5630     6.4970     2.4260 ha         1 JYI       0.119000
     51 H21          0.5020     8.6860     2.6740 ha         1 JYI       0.153000
     52 H23         -3.1640    10.3050     4.2290 ha         1 JYI       0.172000
@<TRIPOS>BOND
     1    14    12 1
     2    13    12 1
     3    12    11 1
     4    12    15 1
     5    11    10 1
     6    10     7 2
     7    15    16 ar
     8    15     8 ar
     9    16    17 ar
    10     7     8 1
    11     7     6 1
    12     8     9 ar
    13    17    18 ar
    14     6     1 ar
    15     6     5 ar
    16     1     2 ar
    17     9    18 ar
    18    18    19 1
    19     5     4 ar
    20     2     3 ar
    21    19    20 2
    22     4     3 ar
    23    20    21 1
    24    21    22 ar
    25    21    29 ar
    26    22    23 ar
    27    30    29 1
    28    29    28 ar
    29    23    24 ar
    30    28    24 ar
    31    24    25 1
    32    25    27 1
    33    25    26 1
    34     1    31 1
    35     2    32 1
    36     3    33 1
    37     4    34 1
    38     5    35 1
    39     9    36 1
    40    10    37 1
    41    11    38 1
    42    11    39 1
    43    13    40 1
    44    13    41 1
    45    13    42 1
    46    14    43 1
    47    14    44 1
    48    14    45 1
    49    16    46 1
    50    17    47 1
    51    19    48 1
    52    20    49 1
    53    22    50 1
    54    23    51 1
    55    28    52 1
@<TRIPOS>SUBSTRUCTURE
     1 JYI         1 TEMP              0 ****  ****    0 ROOT
