@<TRIPOS>MOLECULE
JYJ
   44    47     1     0     0
SMALL
bcc


@<TRIPOS>ATOM
      1 C1           0.0000     0.0000     0.0000 cx         1 JYJ      -0.056900
      2 C2           1.5300     0.0000     0.0000 cx         1 JYJ      -0.163700
      3 C3           2.2270     1.2740    -0.4020 c          1 JYJ       0.634100
      4 C4           3.8830     3.0290     0.0120 c3         1 JYJ       0.025500
      5 C5           3.8660     3.8960     1.2760 c3         1 JYJ       0.017500
      6 C6           3.7860     1.8100     2.7070 c3         1 JYJ       0.017500
      7 C10          7.2720     2.6380     4.6650 cc         1 JYJ      -0.072000
      8 C14          2.2630    -2.3470     0.4720 ca         1 JYJ      -0.119000
      9 C17          3.4640    -2.5470    -2.0110 ca         1 JYJ      -0.030600
     10 C18          2.8250    -1.3750    -1.6430 ca         1 JYJ      -0.090000
     11 C7           3.8030     0.9430     1.4420 c3         1 JYJ       0.025500
     12 C9           5.8840     2.8300     4.3180 cc         1 JYJ      -0.168600
     13 C11          7.4370     1.9400     5.7830 cd         1 JYJ      -0.009100
     14 C12          5.0270     2.2630     5.2070 cd         1 JYJ      -0.022100
     15 C13          2.2260    -1.2760    -0.4010 ca         1 JYJ      -0.040300
     16 C16          3.5040    -3.6160    -1.1340 ca         1 JYJ      -0.100000
     17 C15          2.9030    -3.5160     0.1060 ca         1 JYJ      -0.084000
     18 N            3.2660     1.7310     0.3240 n          1 JYJ      -0.149800
     19 C            0.7650     0.0000     1.3260 cx         1 JYJ      -0.056900
     20 O            6.0140     4.5850     2.7870 o          1 JYJ      -0.634100
     21 N1           4.4020     3.1070     2.3940 n          1 JYJ      -0.152800
     22 O1           1.8530     1.8870    -1.3790 o          1 JYJ      -0.635100
     23 S            5.8830     1.4940     6.4650 ss         1 JYJ      -0.230800
     24 H1          -0.4680     0.9390    -0.2700 hc         1 JYJ       0.055200
     25 H2          -0.4680    -0.9390    -0.2700 hc         1 JYJ       0.055200
     26 H3           3.3190     3.5200    -0.7720 h1         1 JYJ       0.043700
     27 H4           4.9060     2.8760    -0.3100 h1         1 JYJ       0.043700
     28 H5           4.4820     4.7730     1.1230 h1         1 JYJ       0.042700
     29 H6           2.8480     4.1930     1.4980 h1         1 JYJ       0.042700
     30 H7           4.3500     1.3190     3.4910 h1         1 JYJ       0.042700
     31 H8           2.7630     1.9630     3.0290 h1         1 JYJ       0.042700
     32 H10          1.7920    -2.2690     1.4450 ha         1 JYJ       0.115000
     33 H11          2.7930    -0.5370    -2.3290 ha         1 JYJ       0.135000
     34 H12          3.1860     0.0650     1.5950 h1         1 JYJ       0.043700
     35 H13          4.8200     0.6450     1.2200 h1         1 JYJ       0.043700
     36 H14          8.3970     1.6860     6.2160 h4         1 JYJ       0.153000
     37 H15          3.9470     2.2950     5.1280 h4         1 JYJ       0.159000
     38 H16          4.0050    -4.5330    -1.4210 ha         1 JYJ       0.116000
     39 H17          2.9340    -4.3540     0.7920 ha         1 JYJ       0.107000
     40 H18          0.7640     0.9390     1.8650 hc         1 JYJ       0.055200
     41 H19          0.7640    -0.9390     1.8650 hc         1 JYJ       0.055200
     42 Cl           4.2170    -2.6710    -3.5700 cl         1 JYJ      -0.018400
     43 C8           5.4420     3.5640     3.1200 c          1 JYJ       0.627700
     44 H9           8.0950     3.0190     4.0730 ha         1 JYJ       0.138000
@<TRIPOS>BOND
     1     1     2 1   
     2     1    19 1   
     3     1    24 1   
     4     1    25 1   
     5     2     3 1   
     6     2    15 1   
     7     2    19 1   
     8     3    18 1   
     9     3    22 2   
    10     4     5 1   
    11     4    18 1   
    12     4    26 1   
    13     4    27 1   
    14     5    21 1   
    15     5    28 1   
    16     5    29 1   
    17     6    11 1   
    18     6    21 1   
    19     6    30 1   
    20     6    31 1   
    21     7    12 1   
    22     7    13 2   
    23     7    44 1   
    24     8    15 ar  
    25     8    17 ar  
    26     8    32 1   
    27     9    10 ar  
    28     9    16 ar  
    29     9    42 1   
    30    10    15 ar  
    31    10    33 1   
    32    11    18 1   
    33    11    34 1   
    34    11    35 1   
    35    12    14 2   
    36    12    43 1   
    37    13    23 1   
    38    13    36 1   
    39    14    23 1   
    40    14    37 1   
    41    16    17 ar  
    42    16    38 1   
    43    17    39 1   
    44    19    40 1   
    45    19    41 1   
    46    20    43 2   
    47    21    43 1   
@<TRIPOS>SUBSTRUCTURE
     1 JYJ         1 TEMP              0 ****  ****    0 ROOT
