@<TRIPOS>MOLECULE
molecule
   38    40     1     0     0
SMALL
bcc


@<TRIPOS>ATOM
      1 FAT          0.0000     0.0000     0.0000 f          1 JYM      -0.205967
      2 CAS          1.3980     0.0000     0.0000 c3         1 JYM       0.640600
      3 FAU          1.8650     0.0000     1.3190 f          1 JYM      -0.205967
      4 FAV          1.8650    -1.1410    -0.6600 f          1 JYM      -0.205967
      5 C8           1.9000     1.2300    -0.7100 cc         1 JYM       0.306800
      6 N9           3.1800     1.4140    -1.1490 na         1 JYM      -0.335000
      7 N7           1.1770     2.2730    -0.9990 nd         1 JYM      -0.496100
      8 C5           1.9450     3.1920    -1.6360 ca         1 JYM      -0.184200
      9 C4           3.2380     2.6510    -1.7400 ca         1 JYM       0.495800
     10 N3           4.1920     3.3610    -2.3330 nb         1 JYM      -0.792000
     11 C2           3.9300     4.5640    -2.8180 ca         1 JYM       0.999900
     12 N2           4.9490     5.2750    -3.4300 nv         1 JYM      -1.055500
     13 N1           2.7240     5.1130    -2.7390 nb         1 JYM      -0.844000
     14 C6           1.7130     4.4690    -2.1690 ca         1 JYM       0.773600
     15 O6           0.4850     5.0350    -2.1000 os         1 JYM      -0.410100
     16 CAL          0.3370     6.3380    -2.6670 c3         1 JYM       0.143400
     17 CAM         -1.1080     6.8090    -2.4940 c3         1 JYM      -0.072700
     18 CAN         -1.2970     8.1490    -3.2110 c3         1 JYM      -0.074900
     19 CAO         -2.7430     8.6190    -3.0370 c3         1 JYM      -0.077900
     20 CAP         -3.0490     8.7890    -1.5480 c3         1 JYM      -0.081400
     21 CAQ         -2.8600     7.4510    -0.8330 c3         1 JYM      -0.077900
     22 CAR         -1.4140     6.9790    -1.0050 c3         1 JYM      -0.074900
     23 H9           3.9590     0.8170    -0.9560 hn         1 JYM       0.325700
     24 H21N         5.1150     5.1670    -4.4110 hn         1 JYM       0.449300
     25 H22N         5.5320     5.8810    -2.8880 hn         1 JYM       0.449300
     26 HAL1         0.5810     6.3020    -3.7220 h1         1 JYM       0.052200
     27 HAL2         1.0040     7.0280    -2.1660 h1         1 JYM       0.052200
     28 HAM         -1.7850     6.0770    -2.9180 hc         1 JYM       0.066700
     29 HAN1        -1.0820     8.0260    -4.2650 hc         1 JYM       0.046450
     30 HAN2        -0.6250     8.8830    -2.7830 hc         1 JYM       0.046450
     31 HAR1        -1.2830     6.0300    -0.5000 hc         1 JYM       0.046450
     32 HAR2        -0.7420     7.7160    -0.5820 hc         1 JYM       0.046450
     33 HAO1        -3.4140     7.8820    -3.4600 hc         1 JYM       0.043200
     34 HAO2        -2.8750     9.5690    -3.5420 hc         1 JYM       0.043200
     35 HAP1        -4.0730     9.1210    -1.4270 hc         1 JYM       0.041200
     36 HAP2        -2.3740     9.5230    -1.1240 hc         1 JYM       0.041200
     37 HAQ1        -3.5310     6.7170    -1.2600 hc         1 JYM       0.043200
     38 HAQ2        -3.0740     7.5740     0.2220 hc         1 JYM       0.043200
@<TRIPOS>BOND
     1     1     2 1
     2     2     3 1
     3     2     4 1
     4     2     5 1
     5     5     6 1
     6     5     7 2
     7     6     9 1
     8     7     8 1
     9     8     9 ar
    10     8    14 ar
    11     9    10 ar
    12    10    11 ar
    13    11    12 1
    14    11    13 ar
    15    13    14 ar
    16    14    15 1
    17    15    16 1
    18    16    17 1
    19    17    18 1
    20    17    22 1
    21    18    19 1
    22    19    20 1
    23    20    21 1
    24    21    22 1
    25     6    23 1
    26    12    24 1
    27    12    25 1
    28    16    26 1
    29    16    27 1
    30    17    28 1
    31    18    29 1
    32    18    30 1
    33    22    31 1
    34    22    32 1
    35    19    33 1
    36    19    34 1
    37    20    35 1
    38    20    36 1
    39    21    37 1
    40    21    38 1
@<TRIPOS>SUBSTRUCTURE
     1 JYM         1 TEMP              0 ****  ****    0 ROOT
