@<TRIPOS>MOLECULE
JYM
   38    40     1     0     0
SMALL
bcc


@<TRIPOS>ATOM
      1 FAT          0.0000     0.0000     0.0000 f          1 JYM      -0.198633
      2 CAS          1.3980     0.0000     0.0000 c3         1 JYM       0.598600
      3 FAU          1.8650     0.0000     1.3190 f          1 JYM      -0.198633
      4 FAV          1.8650    -1.1410    -0.6600 f          1 JYM      -0.198633
      5 C8           1.9000     1.2300    -0.7100 cc         1 JYM       0.057800
      6 N9           3.1800     1.4140    -1.1490 na         1 JYM       0.224000
      7 N7           1.1770     2.2730    -0.9990 nd         1 JYM      -0.378100
      8 C5           1.9450     3.1920    -1.6360 ca         1 JYM      -0.223200
      9 C4           3.2380     2.6510    -1.7400 ca         1 JYM       0.260800
     10 N3           4.1920     3.3610    -2.3330 nb         1 JYM      -0.661000
     11 C2           3.9300     4.5640    -2.8180 ca         1 JYM       0.779900
     12 N2           4.9490     5.2750    -3.4300 nv         1 JYM      -0.637500
     13 N1           2.7240     5.1130    -2.7390 nb         1 JYM      -0.743000
     14 C6           1.7130     4.4690    -2.1690 ca         1 JYM       0.744600
     15 O6           0.4850     5.0350    -2.1000 os         1 JYM      -0.397100
     16 CAL          0.3370     6.3380    -2.6670 c3         1 JYM       0.209400
     17 CAM         -1.1080     6.8090    -2.4940 c3         1 JYM      -0.060700
     18 CAN         -1.2970     8.1490    -3.2110 c3         1 JYM      -0.021900
     19 CAO         -2.7430     8.6190    -3.0370 c3         1 JYM      -0.022400
     20 CAP         -3.0490     8.7890    -1.5480 c3         1 JYM      -0.026400
     21 CAQ         -2.8600     7.4510    -0.8330 c3         1 JYM      -0.022400
     22 CAR         -1.4140     6.9790    -1.0050 c3         1 JYM      -0.021900
     23 H9           3.9590     0.8170    -0.9560 hn         1 JYM       0.139700
     24 H21N         5.1150     5.1670    -4.4110 hn         1 JYM       0.282800
     25 H22N         5.5320     5.8810    -2.8880 hn         1 JYM       0.282800
     26 HAL1         0.5810     6.3020    -3.7220 h1         1 JYM       0.014700
     27 HAL2         1.0040     7.0280    -2.1660 h1         1 JYM       0.014700
     28 HAM         -1.7850     6.0770    -2.9180 hc         1 JYM       0.040700
     29 HAN1        -1.0820     8.0260    -4.2650 hc         1 JYM       0.018700
     30 HAN2        -0.6250     8.8830    -2.7830 hc         1 JYM       0.018700
     31 HAR1        -1.2830     6.0300    -0.5000 hc         1 JYM       0.018700
     32 HAR2        -0.7420     7.7160    -0.5820 hc         1 JYM       0.018700
     33 HAO1        -3.4140     7.8820    -3.4600 hc         1 JYM       0.014450
     34 HAO2        -2.8750     9.5690    -3.5420 hc         1 JYM       0.014450
     35 HAP1        -4.0730     9.1210    -1.4270 hc         1 JYM       0.013200
     36 HAP2        -2.3740     9.5230    -1.1240 hc         1 JYM       0.013200
     37 HAQ1        -3.5310     6.7170    -1.2600 hc         1 JYM       0.014450
     38 HAQ2        -3.0740     7.5740     0.2220 hc         1 JYM       0.014450
@<TRIPOS>BOND
     1     1     2 1   
     2     2     3 1   
     3     2     4 1   
     4     2     5 1   
     5     5     6 1   
     6     5     7 2   
     7     6     9 1   
     8     6    23 1   
     9     7     8 1   
    10     8     9 ar  
    11     8    14 ar  
    12     9    10 ar  
    13    10    11 ar  
    14    11    12 1   
    15    11    13 ar  
    16    12    24 1   
    17    12    25 1   
    18    13    14 ar  
    19    14    15 1   
    20    15    16 1   
    21    16    17 1   
    22    16    26 1   
    23    16    27 1   
    24    17    18 1   
    25    17    22 1   
    26    17    28 1   
    27    18    19 1   
    28    18    29 1   
    29    18    30 1   
    30    19    20 1   
    31    19    33 1   
    32    19    34 1   
    33    20    21 1   
    34    20    35 1   
    35    20    36 1   
    36    21    22 1   
    37    21    37 1   
    38    21    38 1   
    39    22    31 1   
    40    22    32 1   
@<TRIPOS>SUBSTRUCTURE
     1 JYM         1 TEMP              0 ****  ****    0 ROOT
