@<TRIPOS>MOLECULE
JYS
   46    49     1     0     0
SMALL
bcc


@<TRIPOS>ATOM
      1 C01          0.0000     0.0000     0.0000 ca         1 JYS      -0.124000
      2 C02          1.3800     0.0000     0.0000 ca         1 JYS       0.118900
      3 C03          2.0750     0.0000     1.2070 ca         1 JYS      -0.286200
      4 C04          1.3570    -0.0020     2.4120 ca         1 JYS      -0.000800
      5 C05         -0.0360    -0.0030     2.3980 ca         1 JYS       0.050100
      6 C06         -0.7060    -0.0010     1.1920 ca         1 JYS      -0.073000
      7 C07          3.6000    -0.0020     2.8520 cc         1 JYS      -0.187100
      8 C08          2.3700    -0.0020     3.4850 cd         1 JYS      -0.268400
      9 C09          2.1250    -0.0040     4.9260 c          1 JYS       0.612300
     10 C10          3.2660    -0.1360     5.8770 c          1 JYS       0.507100
     11 C11          4.1360    -0.2850     8.1610 c3         1 JYS      -0.013000
     12 C12          4.1060    -1.5850     8.9730 c3         1 JYS       0.014500
     13 C13          1.6310    -1.8210     8.5060 c3         1 JYS       0.014500
     14 C14          1.6610    -0.5160     7.6860 c3         1 JYS      -0.013000
     15 C15          2.5070    -1.9660    10.7870 c          1 JYS       0.614700
     16 C16          3.6390    -2.0630    11.7320 ca         1 JYS      -0.151600
     17 C17          3.5190    -1.5560    13.0270 ca         1 JYS      -0.072500
     18 C18          4.5810    -1.6510    13.9030 ca         1 JYS      -0.108500
     19 C19          5.7620    -2.2470    13.5010 ca         1 JYS      -0.080000
     20 C20          5.8880    -2.7520    12.2190 ca         1 JYS      -0.108500
     21 C21          4.8330    -2.6690    11.3350 ca         1 JYS      -0.072500
     22 F22          2.0570     0.0010    -1.1700 f          1 JYS      -0.130900
     23 N23          3.4210     0.0000     1.5200 na         1 JYS       0.416600
     24 N24          3.0290    -0.3060     7.1930 n          1 JYS      -0.108800
     25 N25          2.7390    -1.7970     9.4700 n          1 JYS      -0.152800
     26 O26          0.9900     0.1050     5.3490 o          1 JYS      -0.556100
     27 O27          4.4070    -0.0920     5.4670 o          1 JYS      -0.660100
     28 O28          1.3640    -2.0370    11.1980 o          1 JYS      -0.643100
     29 Br          -1.0020    -0.0050     4.0240 br         1 JYS      -0.069100
     30 H1          -0.5360     0.0010    -0.9410 ha         1 JYS       0.123000
     31 H2          -1.7900    -0.0010     1.1770 ha         1 JYS       0.121000
     32 H3           4.5610    -0.0030     3.3530 h4         1 JYS       0.185000
     33 H4           4.0180     0.5610     8.8270 h1         1 JYS       0.059200
     34 H5           5.0780    -0.2090     7.6330 h1         1 JYS       0.059200
     35 H6           4.7890    -1.5050     9.8110 h1         1 JYS       0.045950
     36 H7           4.3950    -2.4150     8.3400 h1         1 JYS       0.045950
     37 H8           0.6890    -1.8930     9.0370 h1         1 JYS       0.045950
     38 H9           1.7460    -2.6690     7.8410 h1         1 JYS       0.045950
     39 H10          1.3710     0.3150     8.3170 h1         1 JYS       0.059200
     40 H11          0.9810    -0.5990     6.8470 h1         1 JYS       0.059200
     41 H12          2.5940    -1.0880    13.3430 ha         1 JYS       0.122000
     42 H13          4.4890    -1.2570    14.9080 ha         1 JYS       0.106500
     43 H14          6.5930    -2.3170    14.1920 ha         1 JYS       0.103000
     44 H15          6.8150    -3.2200    11.9110 ha         1 JYS       0.106500
     45 H16          4.9330    -3.0650    10.3310 ha         1 JYS       0.122000
     46 H17          4.1610     0.0010     0.8460 hn         1 JYS       0.122700
@<TRIPOS>BOND
     1     1     2 ar  
     2     1     6 ar  
     3     1    30 1   
     4     2     3 ar  
     5     2    22 1   
     6     3     4 ar  
     7     3    23 1   
     8     4     5 ar  
     9     4     8 1   
    10     5     6 ar  
    11     5    29 1   
    12     6    31 1   
    13     7     8 2   
    14     7    23 1   
    15     7    32 1   
    16     8     9 1   
    17     9    10 1   
    18     9    26 2   
    19    10    24 1   
    20    10    27 2   
    21    11    12 1   
    22    11    24 1   
    23    11    33 1   
    24    11    34 1   
    25    12    25 1   
    26    12    35 1   
    27    12    36 1   
    28    13    14 1   
    29    13    25 1   
    30    13    37 1   
    31    13    38 1   
    32    14    24 1   
    33    14    39 1   
    34    14    40 1   
    35    15    16 1   
    36    15    25 1   
    37    15    28 2   
    38    16    17 ar  
    39    16    21 ar  
    40    17    18 ar  
    41    17    41 1   
    42    18    19 ar  
    43    18    42 1   
    44    19    20 ar  
    45    19    43 1   
    46    20    21 ar  
    47    20    44 1   
    48    21    45 1   
    49    23    46 1   
@<TRIPOS>SUBSTRUCTURE
     1 JYS         1 TEMP              0 ****  ****    0 ROOT
