@<TRIPOS>MOLECULE
molecule
   83    87     1     0     0
SMALL
bcc


@<TRIPOS>ATOM
      1 C10          0.0000     0.0000     0.0000 c3         1 JYV      -0.060500
      2 C11          1.5310     0.0000     0.0000 c3         1 JYV      -0.097900
      3 C12          2.0380     0.0000     1.4440 c3         1 JYV      -0.065700
      4 C13          1.5550     1.2660     2.1550 c3         1 JYV      -0.097900
      5 C14          0.0240     1.2810     2.1800 c3         1 JYV      -0.060500
      6 C15         -5.2470     6.0370    -2.8090 cc         1 JYV       0.238300
      7 C16         -6.3830     5.1060    -3.2810 cd         1 JYV      -0.430400
      8 C17         -5.2530     6.1580    -5.0900 cd         1 JYV       0.293700
      9 C18         -4.9890     6.5100    -6.6740 c3         1 JYV       0.155500
     10 C19         -5.6280     6.1300    -8.9280 c3         1 JYV       0.172800
     11 C20         -6.8950     5.8230    -9.4850 c3         1 JYV      -0.060400
     12 C21          3.5680    -0.0360     1.4480 c3         1 JYV       0.050700
     13 C22          4.0430    -1.2830     0.7490 ca         1 JYV      -0.094300
     14 C23          4.8420    -1.1840    -0.3740 ca         1 JYV      -0.116000
     15 C24          5.2780    -2.3290    -1.0150 ca         1 JYV      -0.124500
     16 C25          4.9150    -3.5720    -0.5330 ca         1 JYV      -0.121000
     17 C26          4.1150    -3.6710     0.5910 ca         1 JYV      -0.124500
     18 C27          3.6830    -2.5270     1.2340 ca         1 JYV      -0.116000
     19 C28          4.0550    -0.0350     2.8360 c1         1 JYV       0.217700
     20 C29         -4.7300     7.2240     3.5820 c3         1 JYV       0.039700
     21 C30         -5.2230     4.3730    -7.5750 c3         1 JYV       0.150100
     22 C31         -6.6790     6.2300   -11.1940 c3         1 JYV       0.115800
     23 C01         -4.9090     6.2390    -1.3260 ca         1 JYV       0.591300
     24 C02         -4.2740     4.9490    -0.5820 ca         1 JYV      -0.253500
     25 C03         -3.9210     5.1020     0.8960 ca         1 JYV      -0.061800
     26 C04         -4.2230     6.3960     1.3790 ca         1 JYV       0.027800
     27 C05         -4.6560     7.1370     0.7030 ca         1 JYV       0.485200
     28 C06         -3.4040     2.9460     0.1440 cc         1 JYV       0.047900
     29 C07         -3.4410     3.8970     1.1760 cd         1 JYV      -0.230400
     30 C08         -1.0820     3.3690     1.7330 c          1 JYV       0.392300
     31 C32         -8.2340     7.4660   -11.9300 c3         1 JYV       0.129100
     32 C33         -7.7900     5.5480   -13.2220 c3         1 JYV       0.129100
     33 N34         -5.0050     7.0990    -0.6210 nb         1 JYV      -0.724000
     34 N35         -3.9150     3.4730    -1.0810 na         1 JYV      -0.243400
     35 N36         -0.4730     1.1350     0.8060 n          1 JYV      -0.285800
     36 N37         -4.6660     6.5930    -4.0250 nc         1 JYV      -0.582000
     37 N38         -5.6990     5.6300    -7.6630 n3         1 JYV      -0.737600
     38 N39          4.4420    -0.0500     3.9050 n1         1 JYV      -0.365800
     39 N40         -7.8740     5.9540   -11.9190 n3         1 JYV      -0.673600
     40 O41         -0.8670     3.0790     2.6710 o          1 JYV      -0.285100
     41 O42         -1.5670     2.3090    -0.2850 o          1 JYV      -0.588100
     42 S44         -6.5210     5.0720    -4.7560 ss         1 JYV       0.203700
     43 H1          -0.3490     0.1000    -1.0210 h1         1 JYV       0.104200
     44 H2          -0.3500    -0.9420     0.4050 h1         1 JYV       0.104200
     45 H3           1.8810     0.8760    -0.5330 hc         1 JYV       0.058700
     46 H4           1.8810    -0.8900    -0.5090 hc         1 JYV       0.058700
     47 H5           1.6510    -0.8710     1.9600 hc         1 JYV       0.064700
     48 H6           2.0460     2.1240     1.7120 hc         1 JYV       0.058700
     49 H7           1.8250     1.2030     3.2030 hc         1 JYV       0.058700
     50 H8          -0.3230     0.4720     2.8100 h1         1 JYV       0.104200
     51 H9          -0.3090     2.2250     2.5940 h1         1 JYV       0.104200
     52 H10         -6.8430     4.3630    -2.6410 h4         1 JYV       0.193000
     53 H13         -5.2990     7.5330    -6.8490 h1         1 JYV       0.057700
     54 H14         -3.9250     6.4400    -6.8630 h1         1 JYV       0.057700
     55 H15         -4.8380     5.6430    -9.4860 h1         1 JYV       0.035200
     56 H16         -5.4730     7.2020    -8.9040 h1         1 JYV       0.035200
     57 H17         -7.6690     6.4360    -9.0400 hc         1 JYV       0.061200
     58 H18         -7.1200     4.7700    -9.3670 hc         1 JYV       0.061200
     59 H19          3.9510     0.8360     0.9300 hc         1 JYV       0.083700
     60 H20          5.0790    -0.2110    -0.7860 ha         1 JYV       0.133500
     61 H21          5.9050    -2.2510    -1.8950 ha         1 JYV       0.134500
     62 H22          5.2570    -4.4690    -1.0360 ha         1 JYV       0.134000
     63 H23          3.8300    -4.6450     0.9690 ha         1 JYV       0.134500
     64 H24          3.0120    -2.6040     2.0810 ha         1 JYV       0.133500
     65 H25         -5.2460     8.1080     3.9400 h1         1 JYV       0.042367
     66 H26         -3.6700     7.3170     3.7860 h1         1 JYV       0.042367
     67 H27         -5.1200     6.3490     4.0880 h1         1 JYV       0.042367
     68 H28         -5.8530     3.7940    -6.9110 h1         1 JYV       0.032367
     69 H29         -5.2210     3.9180    -8.5580 h1         1 JYV       0.032367
     70 H30         -4.2130     4.3960    -7.1850 h1         1 JYV       0.032367
     71 H31         -5.8670     5.6400   -11.6030 h1         1 JYV       0.031700
     72 H32         -6.4390     7.2820   -11.2840 h1         1 JYV       0.031700
     73 H33         -4.7240     8.1330     1.1220 h4         1 JYV       0.011100
     74 H34         -3.0960     1.9150     0.2750 h4         1 JYV       0.187000
     75 H35         -9.2220     7.5980   -12.3540 h1         1 JYV       0.033200
     76 H36         -7.5100     8.0060   -12.5270 h1         1 JYV       0.033200
     77 H37         -8.2230     7.8470   -10.9160 h1         1 JYV       0.033200
     78 H38         -7.1110     6.1990   -13.7600 h1         1 JYV       0.033200
     79 H39         -8.7710     5.5940   -13.6780 h1         1 JYV       0.033200
     80 H40         -7.4210     4.5300   -13.2600 h1         1 JYV       0.033200
     81 H41         -3.9160     3.0860    -2.0040 hn         1 JYV       0.319700
     82 C09         -0.8640     2.1230     0.6010 c          1 JYV       0.465100
     83 O43         -5.1640     6.9260     2.2310 os         1 JYV      -0.283900
@<TRIPOS>BOND
     1     1     2 1
     2     1    35 1
     3     2     3 1
     4     3     4 1
     5     3    12 1
     6     4     5 1
     7     5    35 1
     8     6     7 2
     9     6    23 1
    10     6    36 1
    11     7    42 1
    12     8     9 1
    13     8    36 2
    14     8    42 1
    15     9    37 1
    16    10    11 1
    17    10    37 1
    18    11    22 1
    19    12    13 1
    20    12    19 1
    21    13    14 ar
    22    13    18 ar
    23    14    15 ar
    24    15    16 ar
    25    16    17 ar
    26    17    18 ar
    27    19    38 3
    28    20    83 1
    29    21    37 1
    30    22    39 1
    31    23    24 ar
    32    23    33 ar
    33    24    25 ar
    34    24    34 1
    35    25    26 ar
    36    25    29 1
    37    26    27 ar
    38    26    83 1
    39    27    33 ar
    40    28    29 2
    41    28    34 1
    42    29    30 1
    43    30    82 1
    44    30    40 2
    45    82    35 1
    46    82    41 2
    47    31    39 1
    48    32    39 1
    49     1    43 1
    50     1    44 1
    51     2    45 1
    52     2    46 1
    53     3    47 1
    54     4    48 1
    55     4    49 1
    56     5    50 1
    57     5    51 1
    58     7    52 1
    59     9    53 1
    60     9    54 1
    61    10    55 1
    62    10    56 1
    63    11    57 1
    64    11    58 1
    65    12    59 1
    66    14    60 1
    67    15    61 1
    68    16    62 1
    69    17    63 1
    70    18    64 1
    71    20    65 1
    72    20    66 1
    73    20    67 1
    74    21    68 1
    75    21    69 1
    76    21    70 1
    77    22    71 1
    78    22    72 1
    79    27    73 1
    80    28    74 1
    81    31    75 1
    82    31    76 1
    83    31    77 1
    84    32    78 1
    85    32    79 1
    86    32    80 1
    87    34    81 1
@<TRIPOS>SUBSTRUCTURE
     1 JYV         1 TEMP              0 ****  ****    0 ROOT
