@<TRIPOS>MOLECULE
molecule
   69    73     1     0     0
SMALL
bcc


@<TRIPOS>ATOM
      1 C12          0.0000     0.0000     0.0000 c3         1 JYY      -0.063700
      2 C13          1.5300     0.0000     0.0000 c3         1 JYY      -0.097400
      3 C14          2.0380     0.0000     1.4450 c3         1 JYY       0.112000
      4 C15          2.7120     7.7330     5.1040 cc         1 JYY       0.295300
      5 C17          2.4770     9.5890     3.3310 cd         1 JYY       0.226900
      6 C18          2.5280    10.2380     2.0790 c          1 JYY       0.727600
      7 C19          1.8760    12.0890     0.6900 c3         1 JYY       0.102000
      8 C20          1.1650    13.7380     0.8540 c3         1 JYY       0.143400
      9 C21         -0.5100    -0.0350    -1.4410 c3         1 JYY       0.047700
     10 C22         -2.0170    -0.0340    -1.4400 ca         1 JYY      -0.090300
     11 C28         -0.0210    -1.2530    -2.1060 c1         1 JYY       0.220700
     12 C29          4.2020     2.1890     8.1540 c3         1 JYY       0.111700
     13 N32          1.4340     1.1340     2.1580 n          1 JYY      -0.485800
     14 N35          0.3700    -2.1820    -2.6310 n1         1 JYY      -0.371800
     15 C01          2.8950     6.5990     5.5970 ca         1 JYY       0.398300
     16 C02          2.5430     5.1600     5.1040 ca         1 JYY      -0.075500
     17 C03          3.0420     4.1170     5.3140 ca         1 JYY       0.134200
     18 C04          3.3030     4.0040     6.5800 ca         1 JYY       0.014800
     19 C05          3.5770     5.1960     7.5080 ca         1 JYY       0.401200
     20 C06          1.8010     4.0070     3.5340 cc         1 JYY      -0.465100
     21 C07          2.1060     3.3300     4.4860 cd         1 JYY       0.052600
     22 C08          1.7270     3.4080     3.3710 c          1 JYY       0.412300
     23 C09          2.2080     2.0240     2.8110 c          1 JYY       0.483100
     24 C10         -0.0280     1.2810     2.1450 c3         1 JYY       0.112000
     25 C11         -0.5120     1.2670     0.6910 c3         1 JYY      -0.097400
     26 C16          2.3980     9.1050     5.9070 cd         1 JYY      -0.386400
     27 C23         -2.7090     0.9880    -2.0640 ca         1 JYY      -0.116500
     28 C24         -4.0910     0.9880    -2.0640 ca         1 JYY      -0.125000
     29 C25         -4.7830    -0.0350    -1.4400 ca         1 JYY      -0.123000
     30 C26         -4.0920    -1.0570    -0.8180 ca         1 JYY      -0.125000
     31 C27         -2.7090    -1.0590    -0.8220 ca         1 JYY      -0.116500
     32 N30          3.3920     6.3870     6.9060 nb         1 JYY      -0.697000
     33 N31          1.9280     5.2700     3.5270 na         1 JYY      -0.380400
     34 N33          2.7030     8.2700     3.6950 nc         1 JYY      -0.651000
     35 N34          1.5430    11.4140     1.9670 ns         1 JYY      -0.746900
     36 O36          0.9870     3.2130     4.2060 o          1 JYY      -0.008100
     37 O37          3.3870     1.7940     2.9810 o          1 JYY      -0.605100
     38 O38          1.9490    14.5380     1.5490 oh         1 JYY      -0.585800
     39 O39          2.4760     9.8220     1.1820 o          1 JYY      -0.383100
     40 S41          2.2490    10.2200     4.9530 ss         1 JYY       0.297700
     41 H1          -0.3590    -0.8710     0.5350 hc         1 JYY       0.061700
     42 H2           1.8790    -0.9460    -0.3970 hc         1 JYY       0.052950
     43 H3           1.8800     0.8040    -0.6360 hc         1 JYY       0.052950
     44 H4           3.1160     0.1010     1.4360 h1         1 JYY       0.058700
     45 H5           1.7710    -0.9420     1.9090 h1         1 JYY       0.058700
     46 H7           2.9500    12.1510     0.5640 h1         1 JYY       0.045700
     47 H8           1.4260    11.5640    -0.1440 h1         1 JYY       0.045700
     48 H9           1.0170    14.1580    -0.1330 h1         1 JYY      -0.004800
     49 H10          0.2070    13.6610     1.3540 h1         1 JYY      -0.004800
     50 H11         -0.1490     0.8370    -1.9730 hc         1 JYY       0.083700
     51 H12          5.1620     2.6900     8.1400 h1         1 JYY       0.038700
     52 H13          3.4960     2.7770     8.7280 h1         1 JYY       0.038700
     53 H14          4.3110     1.2120     8.6080 h1         1 JYY       0.038700
     54 H15          3.9660     5.0910     8.5140 h4         1 JYY       0.062100
     55 H16          1.5930     3.5270     2.5850 h4         1 JYY       0.052000
     56 H17         -0.4660     0.4630     2.7060 h1         1 JYY       0.058700
     57 H18         -0.2890     2.2190     2.6200 h1         1 JYY       0.058700
     58 H19         -0.2570     2.1250     0.0820 hc         1 JYY       0.052950
     59 H20         -1.5890     1.2030     0.7850 hc         1 JYY       0.052950
     60 H21          2.1590     9.1470     6.9630 h4         1 JYY       0.220000
     61 H23         -2.1680     1.7970    -2.5400 ha         1 JYY       0.133500
     62 H24         -4.6330     1.7890    -2.5520 ha         1 JYY       0.133500
     63 H25         -5.8660    -0.0340    -1.4390 ha         1 JYY       0.132000
     64 H26         -4.6330    -1.8580    -0.3290 ha         1 JYY       0.133500
     65 H27         -2.1680    -1.8540    -0.3230 ha         1 JYY       0.133500
     66 H28          1.7820     6.0320     2.8960 hn         1 JYY       0.352700
     67 H29          0.5860    11.2920     2.2340 hn         1 JYY       0.294500
     68 H30          1.6250    15.4210     1.4930 ho         1 JYY       0.408000
     69 O40          3.4740     2.5020     6.9320 os         1 JYY      -0.345900
@<TRIPOS>BOND
     1     1     2 1
     2     1     9 1
     3     1    25 1
     4     2     3 1
     5     3    13 1
     6     4    15 1
     7     4    26 2
     8     4    34 1
     9     5     6 1
    10     5    34 2
    11     5    40 1
    12     6    35 1
    13     6    39 2
    14     7     8 1
    15     7    35 1
    16     8    38 1
    17     9    10 1
    18     9    11 1
    19    10    27 ar
    20    10    31 ar
    21    11    14 3
    22    12    69 1
    23    13    23 1
    24    13    24 1
    25    15    16 ar
    26    15    32 ar
    27    16    17 ar
    28    16    33 1
    29    17    18 ar
    30    17    21 1
    31    18    19 ar
    32    18    69 1
    33    19    32 ar
    34    20    21 2
    35    20    33 1
    36    21    22 1
    37    22    23 1
    38    22    36 2
    39    23    37 2
    40    24    25 1
    41    26    40 1
    42    27    28 ar
    43    28    29 ar
    44    29    30 ar
    45    30    31 ar
    46     1    41 1
    47     2    42 1
    48     2    43 1
    49     3    44 1
    50     3    45 1
    51     7    46 1
    52     7    47 1
    53     8    48 1
    54     8    49 1
    55     9    50 1
    56    12    51 1
    57    12    52 1
    58    12    53 1
    59    19    54 1
    60    20    55 1
    61    24    56 1
    62    24    57 1
    63    25    58 1
    64    25    59 1
    65    26    60 1
    66    27    61 1
    67    28    62 1
    68    29    63 1
    69    30    64 1
    70    31    65 1
    71    33    66 1
    72    35    67 1
    73    38    68 1
@<TRIPOS>SUBSTRUCTURE
     1 JYY         1 TEMP              0 ****  ****    0 ROOT
