@<TRIPOS>MOLECULE
JZ0
   16    16     1     0     0
SMALL
bcc


@<TRIPOS>ATOM
      1 C9          0.0020    0.0460   -0.0230 ca        1 JZ0     -0.101000
      2 C10         1.3970    0.0250   -0.0070 ca        1 JZ0     -0.161000
      3 C11         2.0830   -0.0630    1.2030 ca        1 JZ0     -0.097000
      4 C12         1.3790   -0.1300    2.4030 ca        1 JZ0     -0.209000
      5 C13        -0.0220   -0.1080    2.3800 ca        1 JZ0      0.119100
      6 C14        -0.7310   -0.0200    1.1640 ca        1 JZ0     -0.098300
      7 C15        -2.2100   -0.0010    1.1650 c3        1 JZ0     -0.042800
      8 OAB        -0.7760   -0.1710    3.5310 oh        1 JZ0     -0.498100
      9 H9         -0.5320    0.1160   -0.9830 ha        1 JZ0      0.134000
     10 H10         1.9550    0.0770   -0.9530 ha        1 JZ0      0.133000
     11 H11         3.1820   -0.0800    1.2140 ha        1 JZ0      0.132000
     12 H12         1.9150   -0.1990    3.3600 ha        1 JZ0      0.132000
     13 H15        -2.6170    0.1300    0.1340 hc        1 JZ0      0.046700
     14 H15A       -2.6030   -0.9590    1.5900 hc        1 JZ0      0.046700
     15 H15B       -2.5820    0.8350    1.8100 hc        1 JZ0      0.046700
     16 HOAB       -0.1670   -0.2240    4.2820 ho        1 JZ0      0.417000
@<TRIPOS>BOND
     1    1    2 ar  
     2    1    6 ar  
     3    1    9 1   
     4    2    3 ar  
     5    2   10 1   
     6    3    4 ar  
     7    3   11 1   
     8    4    5 ar  
     9    4   12 1   
    10    5    6 ar  
    11    5    8 1   
    12    6    7 1   
    13    7   13 1   
    14    7   14 1   
    15    7   15 1   
    16    8   16 1   
@<TRIPOS>SUBSTRUCTURE
     1 JZ0         1 TEMP              0 ****  ****    0 ROOT
