@<TRIPOS>MOLECULE
molecule
   16    16     1     0     0
SMALL
bcc


@<TRIPOS>ATOM
      1 C9           0.0000     0.0000     0.0000 ca         1 JZ0      -0.108000
      2 C10          1.3830     0.0000     0.0000 ca         1 JZ0      -0.144000
      3 C11          2.0760     0.0000     1.1960 ca         1 JZ0      -0.111000
      4 C12          1.3900     0.0010     2.3940 ca         1 JZ0      -0.183000
      5 C13          0.0030     0.0010     2.3970 ca         1 JZ0       0.114100
      6 C14         -0.6910     0.0010     1.1950 ca         1 JZ0      -0.099300
      7 C15         -2.1990     0.0020     1.1950 c3         1 JZ0      -0.038800
      8 OAB         -0.6760     0.0020     3.5750 oh         1 JZ0      -0.512100
      9 H9          -0.5410    -0.0000    -0.9380 ha         1 JZ0       0.134000
     10 H10          1.9240    -0.0010    -0.9390 ha         1 JZ0       0.130000
     11 H11          3.1600    -0.0000     1.1930 ha         1 JZ0       0.130000
     12 H12          1.9340     0.0010     3.3310 ha         1 JZ0       0.134000
     13 H15         -2.5590     0.8250     1.8000 hc         1 JZ0       0.045033
     14 H15A        -2.5610    -0.9330     1.6040 hc         1 JZ0       0.045033
     15 H15B        -2.5590     0.1160     0.1790 hc         1 JZ0       0.045033
     16 HOAB        -0.3630    -0.7020     4.1180 ho         1 JZ0       0.419000
@<TRIPOS>BOND
     1     1     2 ar
     2     1     6 ar
     3     2     3 ar
     4     3     4 ar
     5     4     5 ar
     6     5     6 ar
     7     5     8 1
     8     6     7 1
     9     1     9 1
    10     2    10 1
    11     3    11 1
    12     4    12 1
    13     7    13 1
    14     7    14 1
    15     7    15 1
    16     8    16 1
@<TRIPOS>SUBSTRUCTURE
     1 JZ0         1 TEMP              0 ****  ****    0 ROOT
