@<TRIPOS>MOLECULE
molecule
   19    19     1     0     0
SMALL
bcc


@<TRIPOS>ATOM
      1 C7           0.0000     0.0000     0.0000 ca         1 JZ1      -0.149000
      2 C8           1.3820     0.0000     0.0000 ca         1 JZ1      -0.106000
      3 C9           2.0750     0.0000     1.1950 ca         1 JZ1      -0.192000
      4 C10          1.3810    -0.0020     2.3960 ca         1 JZ1       0.121100
      5 C11         -0.6930    -0.0010     1.1960 ca         1 JZ1      -0.103000
      6 C12         -0.0050    -0.0020     2.3950 ca         1 JZ1      -0.099300
      7 C13         -0.7620    -0.0040     3.6980 c3         1 JZ1      -0.029100
      8 C14         -0.9100     1.4330     4.2040 c3         1 JZ1      -0.086100
      9 OAB          2.0600    -0.0020     3.5740 oh         1 JZ1      -0.509100
     10 H7          -0.5410     0.0000    -0.9390 ha         1 JZ1       0.130000
     11 H8           1.9230     0.0010    -0.9390 ha         1 JZ1       0.130000
     12 H9           3.1590     0.0000     1.1940 ha         1 JZ1       0.133000
     13 H11         -1.7760    -0.0020     1.1940 ha         1 JZ1       0.134000
     14 H13         -1.7440    -0.4360     3.5450 hc         1 JZ1       0.048200
     15 H13A        -0.2200    -0.5910     4.4300 hc         1 JZ1       0.048200
     16 H14          0.0630     1.8210     4.4790 hc         1 JZ1       0.037033
     17 H14A        -1.3370     2.0490     3.4220 hc         1 JZ1       0.037033
     18 H14B        -1.5620     1.4460     5.0690 hc         1 JZ1       0.037033
     19 HOAB         2.7620    -0.6310     3.5320 ho         1 JZ1       0.419000
@<TRIPOS>BOND
     1     1     2 ar
     2     1     5 ar
     3     2     3 ar
     4     3     4 ar
     5     4     6 ar
     6     4     9 1
     7     5     6 ar
     8     6     7 1
     9     7     8 1
    10     1    10 1
    11     2    11 1
    12     3    12 1
    13     5    13 1
    14     7    14 1
    15     7    15 1
    16     8    16 1
    17     8    17 1
    18     8    18 1
    19     9    19 1
@<TRIPOS>SUBSTRUCTURE
     1 JZ1         1 TEMP              0 ****  ****    0 ROOT
