@<TRIPOS>MOLECULE
JZ1
   19    19     1     0     0
SMALL
bcc


@<TRIPOS>ATOM
      1 C7          0.0350   -0.0300   -0.0410 ca        1 JZ1     -0.162000
      2 C8          1.4260   -0.0950    0.0020 ca        1 JZ1     -0.096000
      3 C9          2.0880   -0.1160    1.2270 ca        1 JZ1     -0.211000
      4 C10         1.3430   -0.0700    2.4130 ca        1 JZ1      0.123100
      5 C11        -0.7010    0.0140    1.1430 ca        1 JZ1     -0.098000
      6 C12        -0.0660   -0.0040    2.3870 ca        1 JZ1     -0.099300
      7 C13        -0.8510    0.0360    3.6500 c3        1 JZ1     -0.027100
      8 C14        -0.8850    1.4220    4.2500 c3        1 JZ1     -0.088100
      9 OAB         1.9440   -0.0870    3.6530 oh        1 JZ1     -0.498100
     10 H7         -0.4860   -0.0140   -1.0090 ha        1 JZ1      0.133000
     11 H8          2.0070   -0.1300   -0.9320 ha        1 JZ1      0.132000
     12 H9          3.1850   -0.1680    1.2660 ha        1 JZ1      0.132000
     13 H11        -1.8000    0.0630    1.1020 ha        1 JZ1      0.134000
     14 H13        -0.3870   -0.6730    4.3890 hc        1 JZ1      0.049700
     15 H13A       -1.8990   -0.3150    3.4550 hc        1 JZ1      0.049700
     16 H14        -1.4700    1.4130    5.2010 hc        1 JZ1      0.036033
     17 H14A        0.1530    1.7710    4.4720 hc        1 JZ1      0.036033
     18 H14B       -1.3610    2.1470    3.5470 hc        1 JZ1      0.036033
     19 HOAB        2.9000   -0.1680    3.5170 ho        1 JZ1      0.417000
@<TRIPOS>BOND
     1    1    2 ar  
     2    1    5 ar  
     3    1   10 1   
     4    2    3 ar  
     5    2   11 1   
     6    3    4 ar  
     7    3   12 1   
     8    4    6 ar  
     9    4    9 1   
    10    5    6 ar  
    11    5   13 1   
    12    6    7 1   
    13    7    8 1   
    14    7   14 1   
    15    7   15 1   
    16    8   16 1   
    17    8   17 1   
    18    8   18 1   
    19    9   19 1   
@<TRIPOS>SUBSTRUCTURE
     1 JZ1         1 TEMP              0 ****  ****    0 ROOT
