@<TRIPOS>MOLECULE
JZ2
   16    16     1     0     0
SMALL
bcc


@<TRIPOS>ATOM
      1 CL          0.0310   -0.0950    0.0300 cl        1 JZ2     -0.093400
      2 C14         1.7310   -0.0670    0.0070 ca        1 JZ2      0.049400
      3 C5          2.4330   -0.1270    1.2130 ca        1 JZ2     -0.208000
      4 C6          3.8330   -0.1040    1.1810 ca        1 JZ2      0.129100
      5 C11         4.5390   -0.0210   -0.0390 ca        1 JZ2     -0.096300
      6 C7          6.0180    0.0000   -0.0410 c3        1 JZ2     -0.043800
      7 C12         3.8030    0.0380   -1.2230 ca        1 JZ2     -0.094000
      8 C13         2.4080    0.0160   -1.2120 ca        1 JZ2     -0.155000
      9 OAB         4.5900   -0.1600    2.3290 oh        1 JZ2     -0.494100
     10 H5          1.9000   -0.1920    2.1720 ha        1 JZ2      0.148000
     11 H7          6.4230    0.1190   -1.0750 hc        1 JZ2      0.049367
     12 H7A         6.3890    0.8450    0.5930 hc        1 JZ2      0.049367
     13 H7B         6.4130   -0.9520    0.3950 hc        1 JZ2      0.049367
     14 H12         4.3340    0.1030   -2.1860 ha        1 JZ2      0.140000
     15 H13         1.8490    0.0630   -2.1580 ha        1 JZ2      0.149000
     16 HOAB        3.9860   -0.2110    3.0830 ho        1 JZ2      0.421000
@<TRIPOS>BOND
     1    1    2 1   
     2    2    3 ar  
     3    2    8 ar  
     4    3    4 ar  
     5    3   10 1   
     6    4    5 ar  
     7    4    9 1   
     8    5    6 1   
     9    5    7 ar  
    10    6   11 1   
    11    6   12 1   
    12    6   13 1   
    13    7    8 ar  
    14    7   14 1   
    15    8   15 1   
    16    9   16 1   
@<TRIPOS>SUBSTRUCTURE
     1 JZ2         1 TEMP              0 ****  ****    0 ROOT
