@<TRIPOS>MOLECULE
molecule
   16    16     1     0     0
SMALL
bcc


@<TRIPOS>ATOM
      1 Cl           0.0000     0.0000     0.0000 cl         1 JZ2      -0.107400
      2 C14          1.7360     0.0000     0.0000 ca         1 JZ2       0.047400
      3 C5           2.4270     0.0000     1.1980 ca         1 JZ2      -0.182000
      4 C6           3.8150    -0.0000     1.1960 ca         1 JZ2       0.125100
      5 C11          4.5050    -0.0010    -0.0070 ca         1 JZ2      -0.098300
      6 C7           6.0120    -0.0010    -0.0110 c3         1 JZ2      -0.038800
      7 C12          3.8100     0.0000    -1.2010 ca         1 JZ2      -0.099000
      8 C13          2.4280    -0.0050    -1.1990 ca         1 JZ2      -0.139000
      9 OAB          4.4960    -0.0000     2.3720 oh         1 JZ2      -0.506100
     10 H5           1.8860     0.0000     2.1360 ha         1 JZ2       0.148000
     11 H7           6.3740    -0.8280     0.5880 hc         1 JZ2       0.047367
     12 H7A          6.3700    -0.1080    -1.0280 hc         1 JZ2       0.047367
     13 H7B          6.3750     0.9320     0.4030 hc         1 JZ2       0.047367
     14 H12          4.3490    -0.0020    -2.1410 ha         1 JZ2       0.142000
     15 H13          1.8850    -0.0050    -2.1360 ha         1 JZ2       0.145000
     16 HOAB         4.1590     0.6800     2.9310 ho         1 JZ2       0.423000
@<TRIPOS>BOND
     1     1     2 1
     2     2     3 ar
     3     2     8 ar
     4     3     4 ar
     5     4     5 ar
     6     4     9 1
     7     5     6 1
     8     5     7 ar
     9     7     8 ar
    10     3    10 1
    11     6    11 1
    12     6    12 1
    13     6    13 1
    14     7    14 1
    15     8    15 1
    16     9    16 1
@<TRIPOS>SUBSTRUCTURE
     1 JZ2         1 TEMP              0 ****  ****    0 ROOT
