@<TRIPOS>MOLECULE
JZ3
   17    17     1     0     0
SMALL
bcc


@<TRIPOS>ATOM
      1 CAA         0.1050   -0.1380   -0.0760 c3        1 JZ3      0.122700
      2 OAG         1.5240   -0.1380    0.0180 os        1 JZ3     -0.349900
      3 CAI         2.0470   -0.0740    1.3000 ca        1 JZ3      0.041100
      4 CAF         1.2940   -0.0250    2.4730 ca        1 JZ3     -0.161000
      5 CAD         1.9460    0.0370    3.7050 ca        1 JZ3     -0.135000
      6 CAC         3.3380    0.0490    3.7690 ca        1 JZ3     -0.126000
      7 CAE         4.1020    0.0000    2.6050 ca        1 JZ3     -0.137000
      8 CAH         3.4610   -0.0610    1.3620 ca        1 JZ3      0.110100
      9 OAB         4.2580   -0.1080    0.2430 oh        1 JZ3     -0.496100
     10 HAA        -0.3230   -1.0320    0.4380 h1        1 JZ3      0.045367
     11 HAAA       -0.0830   -0.1870   -1.1790 h1        1 JZ3      0.045367
     12 HAAB       -0.3180    0.8020    0.3550 h1        1 JZ3      0.045367
     13 HAF         0.1950   -0.0340    2.4360 ha        1 JZ3      0.137000
     14 HAD         1.3530    0.0760    4.6300 ha        1 JZ3      0.134000
     15 HAC         3.8430    0.0980    4.7450 ha        1 JZ3      0.135000
     16 HAE         5.2010    0.0100    2.6410 ha        1 JZ3      0.152000
     17 HOAB        3.6820   -0.1460   -0.5360 ho        1 JZ3      0.436000
@<TRIPOS>BOND
     1    1    2 1   
     2    1   10 1   
     3    1   11 1   
     4    1   12 1   
     5    2    3 1   
     6    3    4 ar  
     7    3    8 ar  
     8    4    5 ar  
     9    4   13 1   
    10    5    6 ar  
    11    5   14 1   
    12    6    7 ar  
    13    6   15 1   
    14    7    8 ar  
    15    7   16 1   
    16    8    9 1   
    17    9   17 1   
@<TRIPOS>SUBSTRUCTURE
     1 JZ3         1 TEMP              0 ****  ****    0 ROOT
