@<TRIPOS>MOLECULE
molecule
   17    17     1     0     0
SMALL
bcc


@<TRIPOS>ATOM
      1 CAA          0.0000     0.0000     0.0000 c3         1 JZ3       0.126700
      2 OAG          1.4290     0.0000     0.0000 os         1 JZ3      -0.313900
      3 CAI          2.0460     0.0000     1.2120 ca         1 JZ3       0.125100
      4 CAF          1.2930     0.0010     2.3750 ca         1 JZ3      -0.210000
      5 CAD          1.9220     0.0010     3.6060 ca         1 JZ3      -0.100000
      6 CAC          3.3020     0.0010     3.6800 ca         1 JZ3      -0.153000
      7 CAE          4.0590     0.0010     2.5240 ca         1 JZ3      -0.130000
      8 CAH          3.4360    -0.0060     1.2880 ca         1 JZ3       0.078100
      9 OAB          4.1800    -0.0120     0.1490 oh         1 JZ3      -0.505100
     10 HAA         -0.3610    -0.8850     0.5100 h1         1 JZ3       0.041367
     11 HAAA        -0.3610     0.0000    -1.0210 h1         1 JZ3       0.041367
     12 HAAB        -0.3610     0.8840     0.5110 h1         1 JZ3       0.041367
     13 HAF          0.2110     0.0010     2.3190 ha         1 JZ3       0.138000
     14 HAD          1.3310     0.0010     4.5150 ha         1 JZ3       0.132000
     15 HAC          3.7910     0.0040     4.6470 ha         1 JZ3       0.133000
     16 HAE          5.1410    -0.0010     2.5850 ha         1 JZ3       0.142000
     17 HOAB         4.5540    -0.8680     0.0220 ho         1 JZ3       0.415000
@<TRIPOS>BOND
     1     1     2 1
     2     2     3 1
     3     3     4 ar
     4     3     8 ar
     5     4     5 ar
     6     5     6 ar
     7     6     7 ar
     8     7     8 ar
     9     8     9 1
    10     1    10 1
    11     1    11 1
    12     1    12 1
    13     4    13 1
    14     5    14 1
    15     6    15 1
    16     7    16 1
    17     9    17 1
@<TRIPOS>SUBSTRUCTURE
     1 JZ3         1 TEMP              0 ****  ****    0 ROOT
