@<TRIPOS>MOLECULE
JZ4
   22    22     1     0     0
SMALL
bcc


@<TRIPOS>ATOM
      1 C4          0.1380    0.0570   -0.0620 c3        1 JZ4     -0.214000
      2 C7          5.9360   -0.8220    1.4320 c2        1 JZ4     -0.077000
      3 C8          6.4770    0.4140    1.5340 c2        1 JZ4     -0.220000
      4 C9          5.6860    1.5910    1.7050 c1        1 JZ4     -0.008000
      5 C10         4.2610    1.4260    1.5010 c2        1 JZ4      0.005000
      6 C11         4.4740   -1.0370    1.4190 c3        1 JZ4     -0.129000
      7 C12         3.6550    0.2020    1.4250 c2        1 JZ4     -0.168000
      8 C13         2.1830    0.0030    1.3690 c3        1 JZ4     -0.135000
      9 C14         1.6330    0.2340   -0.0270 c3        1 JZ4     -0.159000
     10 H4         -0.3630    0.7830    0.6240 hc        1 JZ4      0.076000
     11 H4A        -0.1460   -0.9760    0.2540 hc        1 JZ4      0.076000
     12 H4B        -0.2470    0.2280   -1.0970 hc        1 JZ4      0.076000
     13 H7          4.1920   -1.6680    2.3120 hc        1 JZ4      0.129500
     14 H8          6.5550   -1.7320    1.3780 ha        1 JZ4      0.130000
     15 H9          7.5710    0.5580    1.5370 ha        1 JZ4      0.152000
     16 H11         4.2050   -1.6370    0.5010 hc        1 JZ4      0.129500
     17 H13         1.9250   -1.0400    1.6970 hc        1 JZ4      0.090500
     18 H13A        1.6760    0.7000    2.0920 hc        1 JZ4      0.090500
     19 H14         2.1180   -0.4850   -0.7390 hc        1 JZ4      0.085500
     20 H14A        1.9030    1.2680   -0.3700 hc        1 JZ4      0.085500
     21 HOAB        2.6350    2.4330    1.3810 ho        1 JZ4      0.203000
     22 OAB         3.5830    2.6200    1.4490 oh        1 JZ4     -0.218000
@<TRIPOS>BOND
     1    1    9 1   
     2    1   10 1   
     3    1   11 1   
     4    1   12 1   
     5    2    3 1   
     6    2    6 1   
     7    2   14 1   
     8    3    4 1   
     9    3   15 1   
    10    4    5 1   
    11    5    7 1   
    12    5   22 1   
    13    6    7 1   
    14    6   13 1   
    15    6   16 1   
    16    7    8 1   
    17    8    9 1   
    18    8   17 1   
    19    8   18 1   
    20    9   19 1   
    21    9   20 1   
    22   21   22 1   
@<TRIPOS>SUBSTRUCTURE
     1 JZ4         1 TEMP              0 ****  ****    0 ROOT
