@<TRIPOS>MOLECULE
molecule
   22    22     1     0     0
SMALL
bcc


@<TRIPOS>ATOM
      1 C4           0.0000     0.0000     0.0000 c3         1 JZ4      -0.092100
      2 C7           5.6210    -1.1920     1.5460 ca         1 JZ4      -0.149000
      3 C8           6.3150    -0.0010     1.4430 ca         1 JZ4      -0.106000
      4 C9           5.6290     1.1930     1.3370 ca         1 JZ4      -0.192000
      5 C10          4.2420     1.1960     1.3370 ca         1 JZ4       0.120100
      6 C11          4.2390    -1.1920     1.5470 ca         1 JZ4      -0.103000
      7 C12          3.5470    -0.0010     1.4420 ca         1 JZ4      -0.099300
      8 C13          2.0400     0.0000     1.4420 c3         1 JZ4      -0.027100
      9 C14          1.5300     0.0000     0.0000 c3         1 JZ4      -0.078400
     10 H4          -0.3610     0.8560     0.5570 hc         1 JZ4       0.032367
     11 H4A         -0.3610     0.0540    -1.0200 hc         1 JZ4       0.032367
     12 H4B         -0.3610    -0.9100     0.4630 hc         1 JZ4       0.032367
     13 H7           6.1620    -2.1270     1.6290 ha         1 JZ4       0.130000
     14 H8           7.3980    -0.0040     1.4430 ha         1 JZ4       0.130000
     15 H9           6.1730     2.1260     1.2560 ha         1 JZ4       0.133000
     16 H11          3.6970    -2.1270     1.6280 ha         1 JZ4       0.134000
     17 H13          1.6780    -0.8840     1.9530 hc         1 JZ4       0.049700
     18 H13A         1.6790     0.8850     1.9530 hc         1 JZ4       0.049700
     19 H14          1.8910     0.8840    -0.5110 hc         1 JZ4       0.046700
     20 H14A         1.8910    -0.8840    -0.5110 hc         1 JZ4       0.046700
     21 HOAB         3.9440     3.0040     1.8190 ho         1 JZ4       0.419000
     22 OAB          3.5640     2.3690     1.2350 oh         1 JZ4      -0.509100
@<TRIPOS>BOND
     1     1     9 1
     2     2     3 ar
     3     2     6 ar
     4     3     4 ar
     5     4     5 ar
     6     5     7 ar
     7     5    22 1
     8     6     7 ar
     9     7     8 1
    10     8     9 1
    11     1    10 1
    12     1    11 1
    13     1    12 1
    14     2    13 1
    15     3    14 1
    16     4    15 1
    17     6    16 1
    18     8    17 1
    19     8    18 1
    20     9    19 1
    21     9    20 1
    22    22    21 1
@<TRIPOS>SUBSTRUCTURE
     1 JZ4         1 TEMP              0 ****  ****    0 ROOT
