@<TRIPOS>MOLECULE
JZ5
   13    13     1     0     0
SMALL
bcc


@<TRIPOS>ATOM
      1 OAB          0.0000     0.0000     0.0000 oh         1 JZ5      -0.357500
      2 CAC          0.9980     0.0000     4.6720 cc         1 JZ5      -0.134000
      3 CAD         -0.2900     0.0000     4.3110 cd         1 JZ5       0.001900
      4 CAE          1.8990     0.0000     3.6320 cc         1 JZ5      -0.102000
      5 NAF          1.4160     0.0000     0.0000 n2         1 JZ5      -0.408200
      6 SAG         -0.4210     0.0000     2.5570 ss         1 JZ5      -0.212800
      7 CAH          2.0640     0.0000     1.1230 cf         1 JZ5       0.490800
      8 CAI          1.3300     0.0000     2.3930 cd         1 JZ5      -0.083000
      9 HOAB        -0.3140    -0.0000    -0.8890 ho         1 JZ5       0.415000
     10 HAD         -1.1280     0.0000     4.9960 h4         1 JZ5       0.147000
     11 HAE          2.9710     0.0000     3.7850 ha         1 JZ5       0.120000
     12 HAH          3.1480    -0.0000     1.1230 h4         1 JZ5       0.002800
     13 HAC          1.3100     0.0000     5.7100 ha         1 JZ5       0.120000
@<TRIPOS>BOND
     1     1     5 1   
     2     1     9 1   
     3     2     3 2   
     4     2     4 1   
     5     2    13 1   
     6     3     6 1   
     7     3    10 1   
     8     4     8 2   
     9     4    11 1   
    10     5     7 2   
    11     6     8 1   
    12     7     8 1   
    13     7    12 1   
@<TRIPOS>SUBSTRUCTURE
     1 JZ5         1 TEMP              0 ****  ****    0 ROOT
