@<TRIPOS>MOLECULE
molecule
   13    13     1     0     0
SMALL
bcc


@<TRIPOS>ATOM
      1 OAB          0.0000     0.0000     0.0000 oh         1 JZ5      -0.453500
      2 CAC          0.9980     0.0000     4.6720 cc         1 JZ5      -0.186000
      3 CAD         -0.2900     0.0000     4.3110 cd         1 JZ5      -0.053100
      4 CAE          1.8990     0.0000     3.6320 cc         1 JZ5      -0.061000
      5 NAF          1.4160     0.0000     0.0000 n2         1 JZ5      -0.359200
      6 SAG         -0.4210     0.0000     2.5570 ss         1 JZ5      -0.083800
      7 CAH          2.0640     0.0000     1.1230 cf         1 JZ5       0.230800
      8 CAI          1.3300     0.0000     2.3930 cd         1 JZ5      -0.231000
      9 HOAB        -0.3140     0.0730    -0.8860 ho         1 JZ5       0.433000
     10 HAD         -1.1280     0.0000     4.9960 h4         1 JZ5       0.174000
     11 HAE          2.9710     0.0000     3.7850 ha         1 JZ5       0.171000
     12 HAH          1.5990    -0.8750     1.5610 h4         1 JZ5       0.261800
     13 HAC          1.3100     0.0000     5.7100 ha         1 JZ5       0.156000
@<TRIPOS>BOND
     1     1     5 1
     2     2     3 2
     3     2     4 1
     4     3     6 1
     5     4     8 2
     6     5     7 2
     7     6     8 1
     8     7     8 1
     9     1     9 1
    10     2    13 1
    11     3    10 1
    12     4    11 1
    13     7    12 1
@<TRIPOS>SUBSTRUCTURE
     1 JZ5         1 TEMP              0 ****  ****    0 ROOT
