@<TRIPOS>MOLECULE
molecule
    9     9     1     0     0
SMALL
bcc


@<TRIPOS>ATOM
      1 ClAA         0.0000     0.0000     0.0000 cl         1 JZ6      -0.084400
      2 CAB          2.6840     0.0000     0.6400 cc         1 JZ6      -0.102300
      3 CAC          2.3250     0.0000    -1.5570 cd         1 JZ6       0.350200
      4 NAD          3.8740     0.0000     0.0000 na         1 JZ6      -0.041600
      5 NAE          3.6210     0.0000    -1.3780 nc         1 JZ6      -0.501800
      6 CAF          1.7100     0.0000    -0.3000 cd         1 JZ6      -0.196900
      7 HAB          2.5360    -0.0000     1.7130 h4         1 JZ6       0.181000
      8 HAC          1.8160     0.0000    -2.5130 h4         1 JZ6       0.059100
      9 HNAD         4.7760     0.0000     0.4340 hn         1 JZ6       0.336700
@<TRIPOS>BOND
     1     1     6 1
     2     2     4 1
     3     2     6 2
     4     3     5 2
     5     3     6 1
     6     4     5 1
     7     2     7 1
     8     3     8 1
     9     4     9 1
@<TRIPOS>SUBSTRUCTURE
     1 JZ6         1 TEMP              0 ****  ****    0 ROOT
