@<TRIPOS>MOLECULE
JZ6
    9     9     1     0     0
SMALL
bcc


@<TRIPOS>ATOM
      1 ClAA       -0.0150    0.0000   -0.0330 cl        1 JZ6     -0.038400
      2 CAB         2.6480    0.0000    0.6900 cc        1 JZ6     -0.137300
      3 CAC         2.3210   -0.0000   -1.5540 cd        1 JZ6      0.309200
      4 NAD         3.8480   -0.0000   -0.0220 na        1 JZ6     -0.017600
      5 NAE         3.6610   -0.0000   -1.3430 nc        1 JZ6     -0.507800
      6 CAF         1.6290    0.0000   -0.2800 cd        1 JZ6     -0.173900
      7 HAB         2.6050    0.0000    1.7770 h4        1 JZ6      0.186000
      8 HAC         1.8810   -0.0000   -2.5510 h4        1 JZ6      0.053100
      9 HNAD        4.7650    0.0000    0.3560 hn        1 JZ6      0.325700
@<TRIPOS>BOND
     1    1    6 1   
     2    2    4 1   
     3    2    6 2   
     4    2    7 1   
     5    3    5 2   
     6    3    6 1   
     7    3    8 1   
     8    4    5 1   
     9    4    9 1   
@<TRIPOS>SUBSTRUCTURE
     1 JZ6         1 TEMP              0 ****  ****    0 ROOT
