@<TRIPOS>MOLECULE
JZ7
   21    21     1     0     0
SMALL
bcc


@<TRIPOS>ATOM
      1 CAA         0.0680    0.1660    0.1160 c3        1 JZ7     -0.098100
      2 CAB         5.8570    0.9580    2.3110 c2        1 JZ7     -0.289200
      3 CAC         5.1770    1.5030    1.2910 c2        1 JZ7      0.049100
      4 CAD         1.5660    0.0270   -0.0210 c3        1 JZ7      0.133400
      5 CAE         5.3590   -0.2380    3.0280 c3        1 JZ7     -0.032200
      6 CAF         3.8660   -0.4030    2.8280 c3        1 JZ7     -0.102400
      7 OAG         3.9970    1.0190    0.7820 os        1 JZ7     -0.368900
      8 OAH         2.0960    0.0100    1.3100 os        1 JZ7     -0.419600
      9 CAI         3.4910   -0.1910    1.3640 c3        1 JZ7      0.334900
     10 HAA        -0.3930    0.1910   -0.9000 hc        1 JZ7      0.045367
     11 HAAA       -0.1860    1.1080    0.6580 hc        1 JZ7      0.045367
     12 HAAB       -0.3540   -0.6940    0.6890 hc        1 JZ7      0.045367
     13 HAC         5.4700    2.4020    0.7240 h4        1 JZ7      0.161000
     14 HAD         2.0070    0.8910   -0.5830 h1        1 JZ7      0.035200
     15 HADA        1.8400   -0.9300   -0.5410 h1        1 JZ7      0.035200
     16 HAE         5.9020   -1.1500    2.6590 hc        1 JZ7      0.050200
     17 HAEA        5.5750   -0.1450    4.1260 hc        1 JZ7      0.050200
     18 HAF         3.3070    0.3420    3.4530 hc        1 JZ7      0.067200
     19 HAFA        3.5350   -1.4270    3.1350 hc        1 JZ7      0.067200
     20 HAI         3.8230   -1.0430    0.7060 h2        1 JZ7      0.049700
     21 HAB         6.8080    1.3860    2.6490 ha        1 JZ7      0.140000
@<TRIPOS>BOND
     1    1    4 1   
     2    1   10 1   
     3    1   11 1   
     4    1   12 1   
     5    2    3 2   
     6    2    5 1   
     7    2   21 1   
     8    3    7 1   
     9    3   13 1   
    10    4    8 1   
    11    4   14 1   
    12    4   15 1   
    13    5    6 1   
    14    5   16 1   
    15    5   17 1   
    16    6    9 1   
    17    6   18 1   
    18    6   19 1   
    19    7    9 1   
    20    8    9 1   
    21    9   20 1   
@<TRIPOS>SUBSTRUCTURE
     1 JZ7         1 TEMP              0 ****  ****    0 ROOT
