@<TRIPOS>MOLECULE
molecule
   21    21     1     0     0
SMALL
bcc


@<TRIPOS>ATOM
      1 CAA          0.0000     0.0000     0.0000 c3         1 JZ7      -0.092100
      2 CAB          5.9360     0.8660     2.2260 c2         1 JZ7      -0.305200
      3 CAC          5.2380     1.5450     1.3530 c2         1 JZ7       0.060100
      4 CAD          1.5300     0.0000     0.0000 c3         1 JZ7       0.132400
      5 CAE          5.3650    -0.2960     2.9900 c3         1 JZ7      -0.032200
      6 CAF          3.8350    -0.2510     2.9190 c3         1 JZ7      -0.107400
      7 OAG          3.9460     1.2740     1.0640 os         1 JZ7      -0.364900
      8 OAH          2.0060     0.0000     1.3480 os         1 JZ7      -0.406600
      9 CAI          3.4310    -0.0000     1.4600 c3         1 JZ7       0.348900
     10 HAA         -0.3610    -0.0160    -1.0210 hc         1 JZ7       0.044700
     11 HAAA        -0.3610     0.8920     0.4970 hc         1 JZ7       0.044700
     12 HAAB        -0.3610    -0.8770     0.5240 hc         1 JZ7       0.044700
     13 HAC          5.7190     2.3660     0.8360 h4         1 JZ7       0.161000
     14 HAD          1.8910     0.8850    -0.5110 h1         1 JZ7       0.030700
     15 HADA         1.8910    -0.8850    -0.5110 h1         1 JZ7       0.030700
     16 HAE          5.7180    -1.2220     2.5540 hc         1 JZ7       0.051200
     17 HAEA         5.6790    -0.2350     4.0250 hc         1 JZ7       0.051200
     18 HAF          3.4260    -1.1970     3.2530 hc         1 JZ7       0.065200
     19 HAFA         3.4650     0.5540     3.5430 hc         1 JZ7       0.065200
     20 HAI          3.8520    -0.7740     0.8300 h2         1 JZ7       0.040700
     21 HAB          6.9660     1.1520     2.4050 ha         1 JZ7       0.135000
@<TRIPOS>BOND
     1     1     4 1
     2     2     3 2
     3     2     5 1
     4     3     7 1
     5     4     8 1
     6     5     6 1
     7     6     9 1
     8     7     9 1
     9     8     9 1
    10     1    10 1
    11     1    11 1
    12     1    12 1
    13     2    21 1
    14     3    13 1
    15     4    14 1
    16     4    15 1
    17     5    16 1
    18     5    17 1
    19     6    18 1
    20     6    19 1
    21     9    20 1
@<TRIPOS>SUBSTRUCTURE
     1 JZ7         1 TEMP              0 ****  ****    0 ROOT
