@<TRIPOS>MOLECULE
molecule
   36    39     1     0     0
SMALL
bcc


@<TRIPOS>ATOM
      1 C1           0.0000     0.0000     0.0000 ca         1 JZ8      -0.147000
      2 N1           2.0910     0.0000    -1.2130 nu         1 JZ8      -0.251200
      3 C2           1.4000     0.0000     0.0000 ca         1 JZ8      -0.082200
      4 N2           3.9680    -0.6990    -2.4690 na         1 JZ8      -0.060700
      5 C3           2.1030     0.0000     1.1850 ca         1 JZ8      -0.118000
      6 N3           3.8810     0.1210    -3.6030 na         1 JZ8      -0.206700
      7 C4           1.4050     0.0010     2.4030 ca         1 JZ8      -0.032000
      8 N4           5.6060    -1.1530    -3.8200 na         1 JZ8      -0.086300
      9 C5           2.0870     0.0010     3.6330 ca         1 JZ8      -0.128000
     10 N5           5.3940    -2.3670    -1.7050 nc         1 JZ8      -0.116000
     11 C6           1.3790     0.0010     4.7950 ca         1 JZ8      -0.081000
     12 C7          -0.0150    -0.0000     4.7870 ca         1 JZ8      -0.079000
     13 C8          -0.7090    -0.0010     3.6160 ca         1 JZ8      -0.108000
     14 C9          -0.0130     0.0000     2.3940 ca         1 JZ8      -0.019000
     15 C10         -0.6980    -0.0000     1.1670 ca         1 JZ8      -0.045000
     16 C11          3.2110    -0.8050    -1.3750 cd         1 JZ8       0.291700
     17 C12          3.5580    -1.7330    -0.4000 cd         1 JZ8      -0.222000
     18 C13          4.6850    -2.5170    -0.6030 cc         1 JZ8       0.148800
     19 C14          5.1000    -3.5300     0.4330 c3         1 JZ8      -0.059900
     20 C15          5.0430    -1.4730    -2.6350 cd         1 JZ8       0.118500
     21 C16          4.9230    -0.2040    -4.3950 cc         1 JZ8       0.189800
     22 H1          -0.5340     0.0000    -0.9420 ha         1 JZ8       0.146000
     23 HN1          1.7850     0.5870    -1.9630 hn         1 JZ8       0.312700
     24 H3           3.1860     0.0000     1.1770 ha         1 JZ8       0.131000
     25 HN4          6.4300    -1.5780    -4.1970 hn         1 JZ8       0.415700
     26 H5           3.1700     0.0030     3.6550 ha         1 JZ8       0.141000
     27 H6           1.9060     0.0020     5.7420 ha         1 JZ8       0.161000
     28 H7          -0.5540    -0.0000     5.7260 ha         1 JZ8       0.165000
     29 H8          -1.7920    -0.0020     3.6250 ha         1 JZ8       0.162000
     30 H10         -1.7810    -0.0000     1.1510 ha         1 JZ8       0.173000
     31 H12          2.9630    -1.8410     0.4980 ha         1 JZ8       0.247000
     32 H14          5.5400    -3.0200     1.2810 hc         1 JZ8       0.107033
     33 H14A         4.2320    -4.0900     0.7580 hc         1 JZ8       0.107033
     34 H14B         5.8270    -4.2080     0.0030 hc         1 JZ8       0.107033
     35 H16          5.1550     0.2490    -5.3520 h5         1 JZ8       0.304000
     36 HN3          3.1850     0.8170    -3.7860 hn         1 JZ8       0.413700
@<TRIPOS>BOND
     1     1     3 ar
     2     1    15 ar
     3     2     3 1
     4     2    16 2
     5     3     5 ar
     6     4     6 1
     7     4    16 1
     8     4    20 1
     9     5     7 ar
    10     6    21 2
    11     7     9 ar
    12     7    14 ar
    13     8    20 1
    14     8    21 1
    15     9    11 ar
    16    10    18 1
    17    10    20 2
    18    11    12 ar
    19    12    13 ar
    20    13    14 ar
    21    14    15 ar
    22    16    17 1
    23    17    18 2
    24    18    19 1
    25     1    22 1
    26     2    23 1
    27     5    24 1
    28     6    36 1
    29     8    25 1
    30     9    26 1
    31    11    27 1
    32    12    28 1
    33    13    29 1
    34    15    30 1
    35    17    31 1
    36    19    32 1
    37    19    33 1
    38    19    34 1
    39    21    35 1
@<TRIPOS>SUBSTRUCTURE
     1 JZ8         1 TEMP              0 ****  ****    0 ROOT
