@<TRIPOS>MOLECULE
JZ9
   20    21     1     0     0
SMALL
bcc


@<TRIPOS>ATOM
      1 CAA        -0.0260   -0.0010   -0.0360 cc        1 JZ9     -0.169300
      2 CAB         1.3770    0.0270   -0.0550 cd        1 JZ9     -0.184000
      3 CAC         3.1490    0.3750    3.3480 c3        1 JZ9     -0.075400
      4 CAD         2.0610   -0.3680    4.0990 c3        1 JZ9     -0.069400
      5 CAE         3.1720    0.0220    1.8670 c3        1 JZ9     -0.000100
      6 CAF         0.6670   -0.0190    3.5960 c3        1 JZ9     -0.004100
      7 NAG        -0.4580   -0.0280    1.2880 na        1 JZ9     -0.171100
      8 CAH         1.8130    0.0170    1.3090 cd        1 JZ9     -0.146300
      9 CAI         0.6590   -0.0180    2.1190 cc        1 JZ9     -0.125600
     10 HAA        -0.7360   -0.0050   -0.8620 h4        1 JZ9      0.161000
     11 HAB         2.0090    0.0530   -0.9360 ha        1 JZ9      0.150000
     12 HAC         4.1450    0.1290    3.8000 hc        1 JZ9      0.040200
     13 HACA        2.9880    1.4790    3.4620 hc        1 JZ9      0.040200
     14 HAD         2.1250   -0.1210    5.1910 hc        1 JZ9      0.042200
     15 HADA        2.2260   -1.4720    3.9900 hc        1 JZ9      0.042200
     16 HAE         3.6350   -0.9930    1.7300 hc        1 JZ9      0.044700
     17 HAEA        3.8170    0.7580    1.3170 hc        1 JZ9      0.044700
     18 HAF         0.3730    0.9990    3.9720 hc        1 JZ9      0.044700
     19 HAFA       -0.0750   -0.7550    4.0050 hc        1 JZ9      0.044700
     20 HNAG       -1.3950   -0.0530    1.5900 hn        1 JZ9      0.290700
@<TRIPOS>BOND
     1    1    2 2   
     2    1    7 1   
     3    1   10 1   
     4    2    8 1   
     5    2   11 1   
     6    3    4 1   
     7    3    5 1   
     8    3   12 1   
     9    3   13 1   
    10    4    6 1   
    11    4   14 1   
    12    4   15 1   
    13    5    8 1   
    14    5   16 1   
    15    5   17 1   
    16    6    9 1   
    17    6   18 1   
    18    6   19 1   
    19    7    9 1   
    20    7   20 1   
    21    8    9 2   
@<TRIPOS>SUBSTRUCTURE
     1 JZ9         1 TEMP              0 ****  ****    0 ROOT
