@<TRIPOS>MOLECULE
molecule
   20    21     1     0     0
SMALL
bcc


@<TRIPOS>ATOM
      1 CAA          0.0000     0.0000     0.0000 cc         1 JZ9      -0.169300
      2 CAB          1.3510     0.0000     0.0000 cd         1 JZ9      -0.195000
      3 CAC          3.1320     0.4160     3.3520 c3         1 JZ9      -0.086400
      4 CAD          2.0800    -0.4230     4.0840 c3         1 JZ9      -0.076400
      5 CAE          3.1760     0.0020     1.8750 c3         1 JZ9      -0.000100
      6 CAF          0.6800    -0.0050     3.6220 c3         1 JZ9      -0.007100
      7 NAG         -0.4280     0.0010     1.2960 na         1 JZ9      -0.155100
      8 CAH          1.7670     0.0000     1.3400 cd         1 JZ9      -0.162300
      9 CAI          0.6580    -0.0010     2.1130 cc         1 JZ9      -0.124600
     10 HAA         -0.6350    -0.0000    -0.8780 h4         1 JZ9       0.162000
     11 HAB          1.9930    -0.0000    -0.8720 ha         1 JZ9       0.146000
     12 HAC          4.1030     0.2490     3.8020 hc         1 JZ9       0.041700
     13 HACA         2.8700     1.4650     3.4240 hc         1 JZ9       0.041700
     14 HAD          2.1610    -0.2150     5.1440 hc         1 JZ9       0.048200
     15 HADA         2.2290    -1.4610     3.8130 hc         1 JZ9       0.048200
     16 HAE          3.5650    -1.0070     1.8160 hc         1 JZ9       0.050200
     17 HAEA         3.7470     0.7450     1.3300 hc         1 JZ9       0.050200
     18 HAF         -0.0300    -0.7450     3.9710 hc         1 JZ9       0.049200
     19 HAFA         0.4940     1.0050     3.9680 hc         1 JZ9       0.049200
     20 HNAG        -1.3830     0.0010     1.5950 hn         1 JZ9       0.290700
@<TRIPOS>BOND
     1     1     2 2
     2     1     7 1
     3     2     8 1
     4     3     4 1
     5     3     5 1
     6     4     6 1
     7     5     8 1
     8     6     9 1
     9     7     9 1
    10     8     9 2
    11     1    10 1
    12     2    11 1
    13     3    12 1
    14     3    13 1
    15     4    14 1
    16     4    15 1
    17     5    16 1
    18     5    17 1
    19     6    18 1
    20     6    19 1
    21     7    20 1
@<TRIPOS>SUBSTRUCTURE
     1 JZ9         1 TEMP              0 ****  ****    0 ROOT
