@<TRIPOS>MOLECULE
JZA
   26    27     1     0     0
SMALL
bcc


@<TRIPOS>ATOM
      1 C11          0.0000     0.0000     0.0000 c3         1 JZA      -0.006500
      2 C13          1.5330     0.0000     0.0000 c3         1 JZA       0.200400
      3 O14          2.0040     0.0000     1.3490 os         1 JZA      -0.405600
      4 C12          1.6300    -1.1590     2.0990 c3         1 JZA       0.200400
      5 C10          0.1020    -1.2180     2.2070 c3         1 JZA      -0.006500
      6 N9          -0.4640    -1.1060     0.8530 n          1 JZA      -0.166800
      7 C7          -1.3790    -1.9880     0.4080 c          1 JZA       0.701100
      8 O8          -1.6310    -2.9830     1.0600 o          1 JZA      -0.663100
      9 N6          -2.0170    -1.7680    -0.7590 nj         1 JZA      -0.304200
     10 C5          -1.9840    -0.7040    -1.7610 cy         1 JZA       0.067000
     11 C4          -3.4860    -0.8480    -2.0000 cy         1 JZA      -0.024600
     12 S1          -3.1460    -2.5960    -1.6390 s6         1 JZA       0.965600
     13 O2          -2.4930    -3.2870    -2.6950 o          1 JZA      -0.533800
     14 O3          -4.0760    -3.1990    -0.7500 o          1 JZA      -0.533800
     15 H11         -0.3640    -0.1430    -1.0100 h1         1 JZA       0.042700
     16 H11A        -0.3640     0.9410     0.3950 h1         1 JZA       0.042700
     17 H13          1.8930    -0.8860    -0.5080 h1         1 JZA       0.015950
     18 H13A         1.8930     0.8860    -0.5080 h1         1 JZA       0.015950
     19 H12          2.0600    -1.1000     3.0920 h1         1 JZA       0.015950
     20 H12A         1.9910    -2.0470     1.5950 h1         1 JZA       0.015950
     21 H10         -0.1950    -2.1620     2.6470 h1         1 JZA       0.042700
     22 H10A        -0.2520    -0.3960     2.8180 h1         1 JZA       0.042700
     23 H5          -1.3970    -0.9720    -2.6310 h1         1 JZA       0.053200
     24 H5A         -1.7220     0.2580    -1.3360 h1         1 JZA       0.053200
     25 H4          -3.7790    -0.6670    -3.0270 h1         1 JZA       0.085200
     26 H4A         -4.0920    -0.3610    -1.2460 h1         1 JZA       0.085200
@<TRIPOS>BOND
     1     1     2 1   
     2     1     6 1   
     3     1    15 1   
     4     1    16 1   
     5     2     3 1   
     6     2    17 1   
     7     2    18 1   
     8     3     4 1   
     9     4     5 1   
    10     4    19 1   
    11     4    20 1   
    12     5     6 1   
    13     5    21 1   
    14     5    22 1   
    15     6     7 1   
    16     7     8 2   
    17     7     9 1   
    18     9    10 1   
    19     9    12 1   
    20    10    11 1   
    21    10    23 1   
    22    10    24 1   
    23    11    12 1   
    24    11    25 1   
    25    11    26 1   
    26    12    13 2   
    27    12    14 2   
@<TRIPOS>SUBSTRUCTURE
     1 JZA         1 TEMP              0 ****  ****    0 ROOT
