@<TRIPOS>MOLECULE
JZB
   62    64     1     0     0
SMALL
bcc


@<TRIPOS>ATOM
      1 CL          0.3960    0.0470   -0.0190 cl        1 JZB     -0.075400
      2 C1          4.3560   -0.4300   -0.1880 ca        1 JZB     -0.256000
      3 N1          1.1490    2.5980   -2.8820 n2        1 JZB     -0.453200
      4 O1          4.5830    0.3760   -4.4390 os        1 JZB     -0.423900
      5 C2          3.0600   -0.1660    0.2720 ca        1 JZB      0.214100
      6 N2          2.1190    4.9750    1.1100 n         1 JZB     -0.456800
      7 O2          3.4070   -1.5170   -4.6630 o         1 JZB     -0.543000
      8 C3          1.9780   -0.1060   -0.6330 ca        1 JZB     -0.069600
      9 O3          2.9220   -0.0040    1.6240 oh        1 JZB     -0.495100
     10 C4          2.2120   -0.1620   -2.0140 ca        1 JZB      0.043700
     11 O4          5.8040   -0.8800   -2.0750 oh        1 JZB     -0.487100
     12 C5          3.5090   -0.4340   -2.4820 ca        1 JZB     -0.173600
     13 O5          1.5870    2.5850   -1.6340 os        1 JZB     -0.150300
     14 C6          4.5660   -0.5820   -1.5620 ca        1 JZB      0.196100
     15 O6          1.9680    2.6950    0.9400 o         1 JZB     -0.604100
     16 C7          1.1000    0.0400   -2.9850 c3        1 JZB     -0.121400
     17 C8          3.7860   -0.6080   -3.9210 c         1 JZB      0.674700
     18 C9          0.9470    1.4550   -3.4840 ce        1 JZB      0.428600
     19 C10         0.4440    1.4890   -4.8730 ce        1 JZB     -0.230600
     20 C11         5.0300    0.2450   -5.7940 c3        1 JZB      0.139400
     21 C12         4.1000    0.9770   -6.7490 c3        1 JZB     -0.078200
     22 C13         3.0860    0.0940   -7.3720 c2        1 JZB     -0.154200
     23 C14         1.9840    0.5200   -7.9970 c2        1 JZB     -0.183200
     24 C15         1.5730    1.9350   -8.1590 c3        1 JZB     -0.043200
     25 C16         0.8850    2.3370   -5.8080 c2        1 JZB     -0.119200
     26 C17         0.4320    2.2990   -7.2200 c3        1 JZB     -0.050200
     27 C18         1.8440    3.9280   -1.1420 c3        1 JZB      0.073400
     28 C19         2.0050    3.8000    0.3670 c         1 JZB      0.660100
     29 C20         2.4230    4.8910    2.5270 c3        1 JZB      0.079500
     30 C21         3.8520    5.3070    2.8810 c3        1 JZB     -0.104900
     31 C22         4.1950    6.6570    2.2860 c3        1 JZB     -0.078400
     32 C23         3.9090    6.6880    0.7990 c3        1 JZB     -0.104900
     33 C24         2.4720    6.2440    0.5110 c3        1 JZB      0.079500
     34 H1          5.1830   -0.5070    0.5310 ha        1 JZB      0.158000
     35 HO3         2.1320    0.5460    1.7800 ho        1 JZB      0.457000
     36 HO4         6.4290   -0.9420   -1.3360 ho        1 JZB      0.427000
     37 H7          0.1180   -0.2640   -2.5260 hc        1 JZB      0.089200
     38 H7A         1.2680   -0.6370   -3.8710 hc        1 JZB      0.089200
     39 H10        -0.3110    0.7160   -5.0940 ha        1 JZB      0.137000
     40 H11         5.1440   -0.8360   -6.0680 h1        1 JZB      0.064700
     41 H11A        6.0370    0.7440   -5.7690 h1        1 JZB      0.064700
     42 H12         4.7250    1.4410   -7.5610 hc        1 JZB      0.060700
     43 H12A        3.5960    1.8160   -6.1930 hc        1 JZB      0.060700
     44 H13         3.2810   -0.9900   -7.2790 ha        1 JZB      0.138000
     45 H14         1.2830   -0.2130   -8.4310 ha        1 JZB      0.120000
     46 H15         2.4390    2.6270   -7.9800 hc        1 JZB      0.045200
     47 H15A        1.2320    2.0980   -9.2180 hc        1 JZB      0.045200
     48 H16         1.6430    3.1050   -5.5800 ha        1 JZB      0.132000
     49 H17        -0.4070    1.5650   -7.3530 hc        1 JZB      0.049700
     50 H17A        0.0390    3.3140   -7.5010 hc        1 JZB      0.049700
     51 H18         2.7990    4.2980   -1.6010 h1        1 JZB      0.072200
     52 H18A        0.9910    4.6110   -1.3930 h1        1 JZB      0.072200
     53 H20         2.2410    3.8400    2.8880 h1        1 JZB      0.059200
     54 H20A        1.7020    5.5770    3.0580 h1        1 JZB      0.059200
     55 H21         3.9410    5.3470    3.9970 hc        1 JZB      0.051450
     56 H21A        4.5740    4.5350    2.5100 hc        1 JZB      0.051450
     57 H22         5.2770    6.8860    2.4670 hc        1 JZB      0.044200
     58 H22A        3.5920    7.4540    2.7970 hc        1 JZB      0.044200
     59 H23         4.0440    7.7270    0.4040 hc        1 JZB      0.051450
     60 H23A        4.6310    6.0210    0.2600 hc        1 JZB      0.051450
     61 H24         1.7680    7.0160    0.9410 h1        1 JZB      0.059200
     62 H24A        2.3120    6.2220   -0.6010 h1        1 JZB      0.059200
@<TRIPOS>BOND
     1    1    8 1   
     2    2    5 ar  
     3    2   14 ar  
     4    2   34 1   
     5    3   13 1   
     6    3   18 2   
     7    4   17 1   
     8    4   20 1   
     9    5    8 ar  
    10    5    9 1   
    11    6   28 1   
    12    6   29 1   
    13    6   33 1   
    14    7   17 2   
    15    8   10 ar  
    16    9   35 1   
    17   10   12 ar  
    18   10   16 1   
    19   11   14 1   
    20   11   36 1   
    21   12   14 ar  
    22   12   17 1   
    23   13   27 1   
    24   15   28 2   
    25   16   18 1   
    26   16   37 1   
    27   16   38 1   
    28   18   19 1   
    29   19   25 2   
    30   19   39 1   
    31   20   21 1   
    32   20   40 1   
    33   20   41 1   
    34   21   22 1   
    35   21   42 1   
    36   21   43 1   
    37   22   23 2   
    38   22   44 1   
    39   23   24 1   
    40   23   45 1   
    41   24   26 1   
    42   24   46 1   
    43   24   47 1   
    44   25   26 1   
    45   25   48 1   
    46   26   49 1   
    47   26   50 1   
    48   27   28 1   
    49   27   51 1   
    50   27   52 1   
    51   29   30 1   
    52   29   53 1   
    53   29   54 1   
    54   30   31 1   
    55   30   55 1   
    56   30   56 1   
    57   31   32 1   
    58   31   57 1   
    59   31   58 1   
    60   32   33 1   
    61   32   59 1   
    62   32   60 1   
    63   33   61 1   
    64   33   62 1   
@<TRIPOS>SUBSTRUCTURE
     1 JZB         1 TEMP              0 ****  ****    0 ROOT
