@<TRIPOS>MOLECULE
JZC
   62    62     1     0     0
SMALL
bcc


@<TRIPOS>ATOM
      1 C1          0.8850   -1.3920    0.0680 c2        1 JZC     -0.296000
      2 N1          1.5620    2.4630    3.7350 n2        1 JZC     -0.059000
      3 O1         -1.7060   -0.5060    3.8660 os        1 JZC     -0.273000
      4 C2          1.8890   -0.5860   -0.3580 c2        1 JZC      0.084000
      5 N2          0.4300    4.7800    0.1010 n4        1 JZC      0.100000
      6 O2         -1.9610    1.2040    2.4420 o         1 JZC     -0.362000
      7 C3          2.2270   -0.8310    2.0230 c1        1 JZC      0.137000
      8 O3          2.9000   -1.1450   -1.0890 oh        1 JZC     -0.245000
      9 C4          1.1410   -0.4290    2.6980 c2        1 JZC     -0.306000
     10 C5         -0.1680   -0.3970    2.0590 c2        1 JZC     -0.098000
     11 O5          0.4520    2.3940    3.0120 os        1 JZC     -0.190000
     12 C6         -0.2750   -0.8680    0.7840 c2        1 JZC      0.106000
     13 O6          1.5760    2.7690    0.5220 o         1 JZC     -0.271000
     14 C7          1.3080   -0.0190    4.1270 c3        1 JZC     -0.085000
     15 C8         -1.3260    0.1930    2.7530 c2        1 JZC      0.387000
     16 C9          1.9540    1.3360    4.2770 c2        1 JZC     -0.037000
     17 C10         3.1070    1.3470    5.1940 c2        1 JZC     -0.119000
     18 C11        -2.7300    0.0480    4.7060 c3        1 JZC     -0.016000
     19 C12        -2.2730   -0.1290    6.1470 c3        1 JZC     -0.145000
     20 C13        -1.5140    1.0380    6.6560 c2        1 JZC     -0.182000
     21 C14        -0.3470    0.9370    7.3000 c2        1 JZC     -0.143000
     22 C15         0.3700    2.1090    7.8640 c3        1 JZC     -0.222000
     23 C16         3.3200    2.2940    6.1100 c2        1 JZC     -0.170000
     24 C17         1.7960    1.8840    8.0640 c1        1 JZC     -0.046000
     25 C18         0.1160    3.5990    2.3100 c3        1 JZC     -0.016000
     26 C19         0.7920    3.6120    0.9550 c2        1 JZC      0.267000
     27 C20         1.0440    4.7180   -1.2730 c3        1 JZC     -0.179000
     28 C21         0.6990    5.9620   -2.0820 c3        1 JZC     -0.153000
     29 C22         1.0550    7.2320   -1.3340 c3        1 JZC     -0.181000
     30 C23         0.4350    7.2460    0.0590 c3        1 JZC     -0.051000
     31 C24         0.7150    6.0030    0.8020 c2        1 JZC     -0.695000
     32 H1          0.8960   -2.4760   -0.1260 ha        1 JZC      0.171000
     33 H3          1.9290    0.5050   -0.1790 h4        1 JZC      0.168000
     34 HO3         3.6400   -0.5180   -1.0950 ho        1 JZC      0.235000
     35 HO4        -1.3850   -1.2720   -0.7140 ho        1 JZC      0.229000
     36 H7          0.3090    0.0080    4.6480 hc        1 JZC      0.124000
     37 H7A         1.9280   -0.7910    4.6600 hc        1 JZC      0.124000
     38 H10         3.7710    0.4710    5.1000 ha        1 JZC      0.140000
     39 H11        -1.9890    2.0180    6.4830 ha        1 JZC      0.119000
     40 H11A       -2.9230    1.1230    4.4580 h1        1 JZC      0.101500
     41 H12        -3.6520   -0.5580    4.5030 h1        1 JZC      0.101500
     42 H12A       -1.6620   -1.0690    6.2250 hc        1 JZC      0.102000
     43 H13        -3.1890   -0.2650    6.7850 hc        1 JZC      0.102000
     44 H14         0.1480   -0.0360    7.4590 ha        1 JZC      0.143000
     45 H15        -0.0880    2.3520    8.8730 hc        1 JZC      0.121000
     46 H15A        0.1980    3.0200    7.2190 hc        1 JZC      0.121000
     47 H16         4.1650    2.2410    6.8100 ha        1 JZC      0.119500
     48 H17         2.6870    3.1890    6.2000 ha        1 JZC      0.119500
     49 H17A        2.3190    2.7520    8.5060 ha        1 JZC      0.025000
     50 H18        -1.0010    3.4980    2.1820 h1        1 JZC      0.168000
     51 H18A        0.3770    4.5400    2.8660 h1        1 JZC      0.168000
     52 H20        -0.5890    4.7590   -0.0330 hn        1 JZC      0.219000
     53 H20A        2.1570    4.6460   -1.1380 hx        1 JZC      0.104500
     54 H21         0.6860    3.7930   -1.7990 hx        1 JZC      0.104500
     55 H21A        1.2620    5.9120   -3.0510 hc        1 JZC      0.081500
     56 H22        -0.3960    5.9640   -2.3280 hc        1 JZC      0.081500
     57 H22A        0.7040    8.1170   -1.9230 hc        1 JZC      0.076000
     58 H23         2.1700    7.3050   -1.2420 hc        1 JZC      0.076000
     59 H23A       -0.6720    7.4110   -0.0460 hc        1 JZC      0.065500
     60 H24         0.8460    8.1090    0.6450 hc        1 JZC      0.065500
     61 H24A        1.6010    5.9720    1.4430 hx        1 JZC      0.115000
     62 O4         -1.5020   -0.8870    0.1680 oh        1 JZC     -0.236000
@<TRIPOS>BOND
     1    1    4 1   
     2    1   12 1   
     3    1   32 1   
     4    2   11 1   
     5    2   16 1   
     6    3   15 1   
     7    3   18 1   
     8    4    8 1   
     9    4   33 1   
    10    5   26 1   
    11    5   27 1   
    12    5   31 1   
    13    5   52 1   
    14    6   15 1   
    15    7    9 1   
    16    8   34 1   
    17    9   10 1   
    18    9   14 1   
    19   10   12 1   
    20   10   15 1   
    21   11   25 1   
    22   12   62 1   
    23   13   26 1   
    24   14   16 1   
    25   14   36 1   
    26   14   37 1   
    27   16   17 1   
    28   17   23 1   
    29   17   38 1   
    30   18   19 1   
    31   18   40 1   
    32   18   41 1   
    33   19   20 1   
    34   19   42 1   
    35   19   43 1   
    36   20   21 1   
    37   20   39 1   
    38   21   22 1   
    39   21   44 1   
    40   22   24 1   
    41   22   45 1   
    42   22   46 1   
    43   23   47 1   
    44   23   48 1   
    45   24   49 1   
    46   25   26 1   
    47   25   50 1   
    48   25   51 1   
    49   27   28 1   
    50   27   53 1   
    51   27   54 1   
    52   28   29 1   
    53   28   55 1   
    54   28   56 1   
    55   29   30 1   
    56   29   57 1   
    57   29   58 1   
    58   30   31 1   
    59   30   59 1   
    60   30   60 1   
    61   31   61 1   
    62   35   62 1   
@<TRIPOS>SUBSTRUCTURE
     1 JZC         1 TEMP              0 ****  ****    0 ROOT
