@<TRIPOS>MOLECULE
JZD
   85    88     1     0     0
SMALL
bcc


@<TRIPOS>ATOM
      1 OAA          0.0000     0.0000     0.0000 o          1 JZD      -0.876300
      2 OAB         -7.8530   -14.2600   -14.4930 o          1 JZD      -0.876300
      3 OAC          1.8900     0.0490    -1.1650 o          1 JZD      -0.876300
      4 OAD         -8.9960   -12.6280   -15.4750 o          1 JZD      -0.876300
      5 ClAE        -4.4420    -2.9110     1.5410 cl         1 JZD      -0.053150
      6 ClAF         0.4190    -5.2760     1.2990 cl         1 JZD      -0.053150
      7 CAI          3.3380    -0.1490     3.6770 ca         1 JZD      -0.130000
      8 CAJ        -12.1960   -16.5420   -15.2860 ca         1 JZD      -0.130000
      9 CAK          4.0270     0.0000     2.4840 ca         1 JZD      -0.134000
     10 CAL        -12.2790   -15.2690   -15.8280 ca         1 JZD      -0.134000
     11 CAM          1.9630    -0.2580     3.6820 ca         1 JZD      -0.137500
     12 CAN        -11.0430   -16.9570   -14.6510 ca         1 JZD      -0.137500
     13 CAO          3.3450     0.0480     1.2870 ca         1 JZD      -0.060000
     14 CAP        -11.2120   -14.4030   -15.7390 ca         1 JZD      -0.060000
     15 CAQ         -2.1150    -1.6170     2.0240 ca         1 JZD      -0.170250
     16 CAR          0.0460    -2.6670     1.9150 ca         1 JZD      -0.170250
     17 CAS         -7.3130   -16.4140   -12.0110 ca         1 JZD      -0.170250
     18 CAT         -9.4790   -15.3730   -11.9030 ca         1 JZD      -0.170250
     19 CAU         -5.1500   -10.0320    -3.7600 c3         1 JZD      -0.029400
     20 CAV         -4.4780    -8.6690    -3.5850 c3         1 JZD      -0.030400
     21 CAW         -5.3570   -10.3120    -5.2510 c3         1 JZD      -0.030400
     22 CAX         -4.2710    -8.3900    -2.0950 c3         1 JZD      -0.028400
     23 CAY         -6.0290   -11.6750    -5.4250 c3         1 JZD      -0.028400
     24 CAZ         -3.5990    -7.0270    -1.9200 c3         1 JZD      -0.025900
     25 CBA         -6.2370   -11.9540    -6.9150 c3         1 JZD      -0.025900
     26 CBB         -3.3920    -6.7470    -0.4300 c3         1 JZD      -0.035400
     27 CBC         -6.9090   -13.3170    -7.0900 c3         1 JZD      -0.035400
     28 CBD         -2.7200    -5.3840    -0.2560 c3         1 JZD       0.199400
     29 CBE         -7.1160   -13.5960    -8.5800 c3         1 JZD       0.199400
     30 OBH         -2.5260    -5.1230     1.1360 os         1 JZD      -0.324900
     31 OBI         -7.7440   -14.8700    -8.7420 os         1 JZD      -0.324900
     32 CBJ          1.2150     0.0000     0.0000 c          1 JZD       0.967700
     33 CBK         -8.8920   -13.8860   -15.0010 c          1 JZD       0.967700
     34 CBL         -0.7340    -1.5400     2.1410 ca         1 JZD       0.124600
     35 CBM         -8.5270   -16.1000   -12.6070 ca         1 JZD       0.124600
     36 CBN         -2.7150    -2.8150     1.6870 ca         1 JZD       0.012900
     37 CBO         -0.5550    -3.8670     1.5840 ca         1 JZD       0.012900
     38 CBP         -7.0530   -16.0040   -10.7170 ca         1 JZD       0.012900
     39 CBQ         -9.2120   -14.9530   -10.6130 ca         1 JZD       0.012900
     40 CBR          1.2580    -0.2180     2.4850 ca         1 JZD      -0.011400
     41 CBS         -9.9540   -16.0990   -14.5560 ca         1 JZD      -0.011400
     42 CBT          1.9510    -0.0550     1.2750 ca         1 JZD      -0.091600
     43 CBU        -10.0370   -14.8070   -15.0990 ca         1 JZD      -0.091600
     44 CBV         -1.9360    -3.9420     1.4660 ca         1 JZD       0.029600
     45 CBW         -8.0010   -15.2730   -10.0160 ca         1 JZD       0.029600
     46 HAI          3.8840    -0.1830     4.6130 ha         1 JZD       0.083000
     47 HAJ        -13.0420   -17.2140   -15.3590 ha         1 JZD       0.083000
     48 HAK          5.1070     0.0820     2.4920 ha         1 JZD       0.085000
     49 HAL        -13.1890   -14.9540   -16.3240 ha         1 JZD       0.085000
     50 HAM          1.4320    -0.3740     4.6190 ha         1 JZD       0.091000
     51 HAN        -10.9860   -17.9530   -14.2300 ha         1 JZD       0.091000
     52 HAO          3.8890     0.1640     0.3570 ha         1 JZD       0.132000
     53 HAP        -11.2840   -13.4090   -16.1640 ha         1 JZD       0.132000
     54 HAQ         -2.7230    -0.7380     2.2000 ha         1 JZD       0.125500
     55 HAR          1.1230    -2.6070     2.0060 ha         1 JZD       0.125500
     56 HAS         -6.5710   -16.9810   -12.5590 ha         1 JZD       0.125500
     57 HAT        -10.4260   -15.1270   -12.3670 ha         1 JZD       0.125500
     58 HAU         -6.1090   -10.0290    -3.2570 hc         1 JZD       0.011700
     59 HAUA        -4.5200   -10.8020    -3.3330 hc         1 JZD       0.011700
     60 HAV         -5.1090    -7.8980    -4.0120 hc         1 JZD       0.016200
     61 HAVA        -3.5190    -8.6710    -4.0890 hc         1 JZD       0.016200
     62 HAW         -4.3980   -10.3140    -5.7540 hc         1 JZD       0.016200
     63 HAX         -5.2290    -8.3870    -1.5910 hc         1 JZD       0.012200
     64 HAXA        -3.6400    -9.1600    -1.6680 hc         1 JZD       0.012200
     65 HAY         -5.3990   -12.4460    -4.9980 hc         1 JZD       0.012200
     66 HAZ         -2.6400    -7.0290    -2.4240 hc         1 JZD       0.017200
     67 HAZA        -4.2290    -6.2560    -2.3480 hc         1 JZD       0.017200
     68 HBA         -6.8670   -11.1830    -7.3420 hc         1 JZD       0.017200
     69 HBAA        -5.2780   -11.9570    -7.4190 hc         1 JZD       0.017200
     70 HBB         -2.7620    -7.5180    -0.0030 hc         1 JZD       0.017200
     71 HBBA        -4.3510    -6.7450     0.0730 hc         1 JZD       0.017200
     72 HBC         -7.8680   -13.3140    -6.5860 hc         1 JZD       0.017200
     73 HBCA        -6.2790   -14.0880    -6.6620 hc         1 JZD       0.017200
     74 HBD         -3.3500    -4.6130    -0.6830 h1         1 JZD       0.003200
     75 HBDA        -1.7610    -5.3860    -0.7600 h1         1 JZD       0.003200
     76 HBE         -7.7460   -12.8260    -9.0070 h1         1 JZD       0.003200
     77 HBEA        -6.1570   -13.6000    -9.0830 h1         1 JZD       0.003200
     78 HNBF        -0.6890     0.4470     2.7830 hn         1 JZD       0.274800
     79 HNBG        -8.1600   -17.1350   -14.3830 hn         1 JZD       0.274800
     80 H37         -5.9880    -9.5410    -5.6780 hc         1 JZD       0.016200
     81 H38         -6.9880   -11.6730    -4.9210 hc         1 JZD       0.012200
     82 ClAH       -10.3920   -14.0260    -9.7420 cl         1 JZD      -0.053150
     83 NBG         -8.7920   -16.5140   -13.9180 nu         1 JZD      -0.188000
     84 NBF         -0.1270    -0.3270     2.4870 nu         1 JZD      -0.188000
     85 ClAG        -5.5380   -16.4040    -9.9690 cl         1 JZD      -0.053150
@<TRIPOS>BOND
     1     1    32 1   
     2     2    33 1   
     3     3    32 1   
     4     4    33 1   
     5     5    36 1   
     6     6    37 1   
     7     7     9 ar  
     8     7    11 ar  
     9     7    46 1   
    10     8    10 ar  
    11     8    12 ar  
    12     8    47 1   
    13     9    13 ar  
    14     9    48 1   
    15    10    14 ar  
    16    10    49 1   
    17    11    40 ar  
    18    11    50 1   
    19    12    41 ar  
    20    12    51 1   
    21    13    42 ar  
    22    13    52 1   
    23    14    43 ar  
    24    14    53 1   
    25    15    34 ar  
    26    15    36 ar  
    27    15    54 1   
    28    16    34 ar  
    29    16    37 ar  
    30    16    55 1   
    31    17    35 ar  
    32    17    38 ar  
    33    17    56 1   
    34    18    35 ar  
    35    18    39 ar  
    36    18    57 1   
    37    19    20 1   
    38    19    21 1   
    39    19    58 1   
    40    19    59 1   
    41    20    22 1   
    42    20    60 1   
    43    20    61 1   
    44    21    23 1   
    45    21    62 1   
    46    21    80 1   
    47    22    24 1   
    48    22    63 1   
    49    22    64 1   
    50    23    25 1   
    51    23    65 1   
    52    23    81 1   
    53    24    26 1   
    54    24    66 1   
    55    24    67 1   
    56    25    27 1   
    57    25    68 1   
    58    25    69 1   
    59    26    28 1   
    60    26    70 1   
    61    26    71 1   
    62    27    29 1   
    63    27    72 1   
    64    27    73 1   
    65    28    30 1   
    66    28    74 1   
    67    28    75 1   
    68    29    31 1   
    69    29    76 1   
    70    29    77 1   
    71    30    44 1   
    72    31    45 1   
    73    32    42 1   
    74    33    43 1   
    75    34    84 1   
    76    35    83 1   
    77    36    44 ar  
    78    37    44 ar  
    79    38    45 ar  
    80    38    85 1   
    81    39    45 ar  
    82    39    82 1   
    83    40    42 ar  
    84    40    84 1   
    85    41    43 ar  
    86    41    83 1   
    87    78    84 1   
    88    79    83 1   
@<TRIPOS>SUBSTRUCTURE
     1 JZD         1 TEMP              0 ****  ****    0 ROOT
