@<TRIPOS>MOLECULE
molecule
   73    76     1     0     0
SMALL
bcc


@<TRIPOS>ATOM
      1 C1           0.0000     0.0000     0.0000 c          1 JZE       0.877700
      2 N1           1.3470    -0.1110     2.5040 nu         1 JZE      -0.656000
      3 O1           1.2160     0.0000     0.0000 o          1 JZE      -0.825800
      4 Cl1          5.9420     2.0630     1.9170 cl         1 JZE      -0.120150
      5 C2          -0.7370     0.0000     1.2750 ca         1 JZE      -0.098100
      6 N2           9.8160    13.7170    -8.5420 nu         1 JZE      -0.656000
      7 O2          -0.6730     0.0050    -1.1680 o          1 JZE      -0.825800
      8 Cl2          1.3940     4.9890     2.0820 cl         1 JZE      -0.120150
      9 C3          -2.1340     0.0500     1.2790 ca         1 JZE      -0.090000
     10 O3           4.3020     4.5190     1.8720 os         1 JZE      -0.346900
     11 Cl3          6.5440    13.3970    -4.6180 cl         1 JZE      -0.120150
     12 C4          -2.8170     0.0490     2.4750 ca         1 JZE      -0.160000
     13 O4           8.5460    11.4470    -3.6610 os         1 JZE      -0.346900
     14 Cl4         11.0970    10.4800    -4.7900 cl         1 JZE      -0.120150
     15 C5          -2.1270    -0.0010     3.6770 ca         1 JZE      -0.153500
     16 O5           9.5510    10.1310   -10.6950 o          1 JZE      -0.825800
     17 C6          -0.7480    -0.0500     3.6890 ca         1 JZE      -0.164000
     18 O6           8.6060    11.7240    -9.4720 o          1 JZE      -0.825800
     19 C7          -0.0410    -0.0560     2.4930 ca         1 JZE       0.137100
     20 C8           2.0940     1.0610     2.3430 ca         1 JZE       0.274600
     21 C9           3.4760     0.9920     2.2250 ca         1 JZE      -0.180500
     22 C10          4.2150     2.1500     2.0660 ca         1 JZE       0.064400
     23 C11          1.4540     2.2920     2.2970 ca         1 JZE      -0.180500
     24 C12          2.1940     3.4500     2.1400 ca         1 JZE       0.064400
     25 C13          3.5750     3.3810     2.0270 ca         1 JZE       0.042100
     26 C14          4.5360     4.9640     0.5330 c3         1 JZE       0.139400
     27 C15          5.3640     6.2490     0.5600 c3         1 JZE      -0.080400
     28 C16          5.6150     6.7250    -0.8730 c3         1 JZE      -0.080400
     29 C17          6.4430     8.0100    -0.8470 c3         1 JZE      -0.078400
     30 C18          6.6930     8.4860    -2.2800 c3         1 JZE      -0.080400
     31 C19          7.5210     9.7720    -2.2530 c3         1 JZE      -0.080400
     32 C20          7.7710    10.2460    -3.6850 c3         1 JZE       0.139400
     33 C21          8.8580    12.0050    -4.8620 ca         1 JZE       0.042100
     34 C22          8.0070    12.9400    -5.4350 ca         1 JZE       0.064400
     35 C23          8.3240    13.5080    -6.6540 ca         1 JZE      -0.180500
     36 C24         10.0310    11.6440    -5.5100 ca         1 JZE       0.064400
     37 C25         10.3480    12.2120    -6.7290 ca         1 JZE      -0.180500
     38 C26          9.4950    13.1420    -7.3060 ca         1 JZE       0.274600
     39 C27         10.9220    13.2670    -9.2500 ca         1 JZE       0.137100
     40 C28         12.1110    13.9850    -9.2170 ca         1 JZE      -0.164000
     41 C29         13.2100    13.5370    -9.9220 ca         1 JZE      -0.153500
     42 C30         13.1390    12.3700   -10.6650 ca         1 JZE      -0.160000
     43 C31         11.9690    11.6430   -10.7100 ca         1 JZE      -0.090000
     44 C32         10.8490    12.0800    -9.9970 ca         1 JZE      -0.098100
     45 C33          9.5970    11.3050   -10.0350 c          1 JZE       0.877700
     46 HN1          1.8110    -0.9820     2.6700 hn         1 JZE       0.442800
     47 HN2          9.2680    14.4750    -8.8980 hn         1 JZE       0.442800
     48 H3          -2.6780     0.0890     0.3440 ha         1 JZE       0.160000
     49 H4          -3.9000     0.0880     2.4770 ha         1 JZE       0.107000
     50 H5          -2.6740     0.0010     4.6120 ha         1 JZE       0.104000
     51 H6          -0.2170    -0.0890     4.6330 ha         1 JZE       0.113000
     52 H9           3.9770     0.0330     2.2770 ha         1 JZE       0.149250
     53 H11          0.3810     2.3500     2.4340 ha         1 JZE       0.149250
     54 H14          5.0740     4.1980    -0.0130 h1         1 JZE       0.037200
     55 H14A         3.5870     5.1550     0.0460 h1         1 JZE       0.037200
     56 H15          4.8250     7.0150     1.1060 hc         1 JZE       0.046700
     57 H15A         6.3120     6.0580     1.0480 hc         1 JZE       0.046700
     58 H16          4.6670     6.9160    -1.3610 hc         1 JZE       0.045200
     59 H16A         6.1530     5.9590    -1.4180 hc         1 JZE       0.045200
     60 H17          7.3910     7.8180    -0.3590 hc         1 JZE       0.038700
     61 H17A         5.9050     8.7750    -0.3010 hc         1 JZE       0.038700
     62 H18          5.7440     8.6780    -2.7670 hc         1 JZE       0.045200
     63 H18A         7.2310     7.7210    -2.8260 hc         1 JZE       0.045200
     64 H19          8.4700     9.5800    -1.7650 hc         1 JZE       0.046700
     65 H19A         6.9830    10.5370    -1.7070 hc         1 JZE       0.046700
     66 H20          8.3100     9.4810    -4.2310 h1         1 JZE       0.037200
     67 H20A         6.8230    10.4380    -4.1730 h1         1 JZE       0.037200
     68 H23          7.6760    14.2610    -7.0860 ha         1 JZE       0.149250
     69 H25         11.2790    11.9540    -7.2200 ha         1 JZE       0.149250
     70 H28         12.1750    14.8990    -8.6390 ha         1 JZE       0.113000
     71 H29         14.1340    14.1020    -9.8930 ha         1 JZE       0.104000
     72 H30         14.0070    12.0280   -11.2160 ha         1 JZE       0.107000
     73 H31         11.9200    10.7290   -11.2900 ha         1 JZE       0.160000
@<TRIPOS>BOND
     1     3     1 1
     2     5     1 1
     3     1     7 1
     4    19     2 1
     5     2    20 1
     6     2    46 1
     7    22     4 1
     8     9     5 ar
     9     5    19 ar
    10    38     6 1
    11     6    39 1
    12     6    47 1
    13    24     8 1
    14    12     9 ar
    15     9    48 1
    16    25    10 1
    17    10    26 1
    18    11    34 1
    19    12    15 ar
    20    12    49 1
    21    32    13 1
    22    13    33 1
    23    14    36 1
    24    15    17 ar
    25    15    50 1
    26    45    16 1
    27    17    19 ar
    28    17    51 1
    29    18    45 1
    30    20    21 ar
    31    20    23 ar
    32    21    22 ar
    33    21    52 1
    34    22    25 ar
    35    23    24 ar
    36    23    53 1
    37    24    25 ar
    38    26    27 1
    39    26    54 1
    40    26    55 1
    41    27    28 1
    42    27    56 1
    43    27    57 1
    44    28    29 1
    45    28    58 1
    46    28    59 1
    47    29    30 1
    48    29    60 1
    49    29    61 1
    50    30    31 1
    51    30    62 1
    52    30    63 1
    53    31    32 1
    54    31    64 1
    55    31    65 1
    56    32    66 1
    57    32    67 1
    58    33    34 ar
    59    33    36 ar
    60    34    35 ar
    61    35    38 ar
    62    35    68 1
    63    36    37 ar
    64    37    38 ar
    65    37    69 1
    66    40    39 ar
    67    39    44 ar
    68    40    41 ar
    69    40    70 1
    70    41    42 ar
    71    41    71 1
    72    42    43 ar
    73    42    72 1
    74    44    43 ar
    75    43    73 1
    76    44    45 1
@<TRIPOS>SUBSTRUCTURE
     1 JZE         1 TEMP              0 ****  ****    0 ROOT
