@<TRIPOS>MOLECULE
JZF
   55    56     1     0     0
SMALL
bcc


@<TRIPOS>ATOM
      1 N1           0.0000     0.0000     0.0000 n          1 JZF      -0.090400
      2 O1           0.4680     3.0390     6.7450 o          1 JZF      -0.565100
      3 C2           1.3410     0.0000     0.0000 c          1 JZF       0.629000
      4 O2           1.9360     0.0010    -1.0570 o          1 JZF      -0.647000
      5 C3           2.1230     0.0000     1.2870 c3         1 JZF      -0.105900
      6 O3          -1.9330     0.0200     1.0620 o          1 JZF      -0.647000
      7 C4           1.3030     0.7030     2.3740 c3         1 JZF      -0.050700
      8 O4          -0.5680    -2.3440    -1.0280 o          1 JZF      -0.591000
      9 C5          -0.0590     0.0090     2.4830 c3         1 JZF      -0.105900
     10 O5          -1.5800    -1.6780    -2.8750 os         1 JZF      -0.409900
     11 C6          -0.7230     0.0100     1.1310 c          1 JZF       0.629000
     12 C7           2.0370     0.6070     3.7130 c3         1 JZF      -0.045400
     13 C8           1.2790     1.4150     4.7690 c3         1 JZF       0.202100
     14 C9           2.0930     1.4530     6.0640 c3         1 JZF      -0.176700
     15 OH           0.0130     0.8010     5.0200 oh         1 JZF      -0.590800
     16 C10          1.4090     2.3530     7.0680 c          1 JZF       0.631100
     17 C11          1.9330     2.3740     8.4860 c3         1 JZF      -0.152700
     18 C12          2.0300     0.9310     8.9910 c3         1 JZF      -0.010400
     19 C13          2.8760     0.1080     8.0190 c3         1 JZF      -0.055700
     20 C14          2.1840     0.0430     6.6560 c3         1 JZF      -0.015400
     21 C15         -0.7040    -0.0050    -1.2850 c3         1 JZF      -0.022000
     22 C16         -1.7770    -3.0710    -3.2320 c3         1 JZF       0.228400
     23 C17         -2.5110    -3.1560    -4.5710 c3         1 JZF      -0.003100
     24 C18          0.9750     3.1670     9.3770 c3         1 JZF       0.005900
     25 C19          4.2510     0.7630     7.8610 c3         1 JZF      -0.011100
     26 C21         -0.9460    -1.4270    -1.7190 c          1 JZF       0.696100
     27 H13          3.0570     0.5290     1.1410 hc         1 JZF       0.058700
     28 H23          2.3220    -1.0210     1.5880 hc         1 JZF       0.058700
     29 H4           1.1610     1.7420     2.1050 hc         1 JZF       0.033700
     30 H15          0.0810    -1.0120     2.8160 hc         1 JZF       0.058700
     31 H25         -0.6810     0.5440     3.1900 hc         1 JZF       0.058700
     32 H17          3.0390     1.0040     3.6060 hc         1 JZF       0.031700
     33 H27          2.0900    -0.4300     4.0220 hc         1 JZF       0.031700
     34 H8           1.1260     2.4250     4.4090 h1         1 JZF       0.018700
     35 H9           3.0900     1.8260     5.8630 hc         1 JZF       0.058700
     36 H1OH        -0.6670     1.4520     4.9720 ho         1 JZF       0.409000
     37 H11          2.9150     2.8310     8.5030 hc         1 JZF       0.051700
     38 H112         2.4960     0.9230     9.9690 hc         1 JZF       0.023700
     39 H212         1.0370     0.5040     9.0550 hc         1 JZF       0.023700
     40 H13A         2.9940    -0.8960     8.4080 hc         1 JZF       0.032700
     41 H114         1.1870    -0.3610     6.7780 hc         1 JZF       0.032700
     42 H214         2.7580    -0.5900     5.9910 hc         1 JZF       0.032700
     43 H115        -0.1020     0.5030    -2.0290 h1         1 JZF       0.070200
     44 H215        -1.6540     0.5060    -1.1790 h1         1 JZF       0.070200
     45 H116        -0.8150    -3.5620    -3.3150 h1         1 JZF       0.010200
     46 H216        -2.3660    -3.5600    -2.4650 h1         1 JZF       0.010200
     47 H117        -3.4730    -2.6660    -4.4870 hc         1 JZF       0.011033
     48 H217        -2.6570    -4.1960    -4.8370 hc         1 JZF       0.011033
     49 H317        -1.9220    -2.6670    -5.3370 hc         1 JZF       0.011033
     50 H118         0.9690     2.7400    10.3720 hc         1 JZF       0.012700
     51 H218        -0.0240     3.1240     8.9600 hc         1 JZF       0.012700
     52 H318         1.3000     4.1990     9.4280 hc         1 JZF       0.012700
     53 H119         4.7370     0.8190     8.8270 hc         1 JZF       0.008033
     54 H219         4.8570     0.1720     7.1850 hc         1 JZF       0.008033
     55 H319         4.1310     1.7620     7.4590 hc         1 JZF       0.008033
@<TRIPOS>BOND
     1     1     3 1   
     2     1    11 1   
     3     1    21 1   
     4     2    16 2   
     5     3     4 2   
     6     3     5 1   
     7     5     7 1   
     8     5    27 1   
     9     5    28 1   
    10     6    11 2   
    11     7     9 1   
    12     7    12 1   
    13     7    29 1   
    14     8    26 2   
    15     9    11 1   
    16     9    30 1   
    17     9    31 1   
    18    10    22 1   
    19    10    26 1   
    20    12    13 1   
    21    12    32 1   
    22    12    33 1   
    23    13    14 1   
    24    13    15 1   
    25    13    34 1   
    26    14    16 1   
    27    14    20 1   
    28    14    35 1   
    29    15    36 1   
    30    16    17 1   
    31    17    18 1   
    32    17    24 1   
    33    17    37 1   
    34    18    19 1   
    35    18    38 1   
    36    18    39 1   
    37    19    20 1   
    38    19    25 1   
    39    19    40 1   
    40    20    41 1   
    41    20    42 1   
    42    21    26 1   
    43    21    43 1   
    44    21    44 1   
    45    22    23 1   
    46    22    45 1   
    47    22    46 1   
    48    23    47 1   
    49    23    48 1   
    50    23    49 1   
    51    24    50 1   
    52    24    51 1   
    53    24    52 1   
    54    25    53 1   
    55    25    54 1   
    56    25    55 1   
@<TRIPOS>SUBSTRUCTURE
     1 JZF         1 TEMP              0 ****  ****    0 ROOT
