@<TRIPOS>MOLECULE
molecule
   68    73     1     0     0
SMALL
bcc


@<TRIPOS>ATOM
      1 C1           0.0000     0.0000     0.0000 ca         1 JZG      -0.007200
      2 N1           1.3750     0.0000     0.0000 na         1 JZG      -0.072400
      3 O1          -3.2060     0.0010    -1.7250 oh         1 JZG      -0.469100
      4 C2          -0.9440     0.0000    -1.0230 ca         1 JZG      -0.261000
      5 N2           2.4240     0.0230     4.1700 nc         1 JZG      -0.368000
      6 C3          -2.2910     0.0000    -0.7230 ca         1 JZG       0.168100
      7 N3           2.2140     0.0290     5.4390 nd         1 JZG      -0.242800
      8 C4          -2.7210     0.0020     0.6180 ca         1 JZG      -0.146600
      9 N4           0.9520     0.0320     5.6880 na         1 JZG       0.113400
     10 O4          -0.5440    -0.2680     9.5010 o          1 JZG      -0.592100
     11 C5          -1.7840     0.0020     1.6480 ca         1 JZG      -0.063000
     12 N5           0.5850    -2.0810    10.1030 ns         1 JZG      -0.479100
     13 C6          -0.4270     0.0070     1.3430 ca         1 JZG      -0.088800
     14 C7          -4.1600     0.0030     0.9300 c          1 JZG       0.884200
     15 C8           0.7950     0.0110     2.1640 cc         1 JZG      -0.185000
     16 C9           1.8490     0.0000     1.2940 cd         1 JZG      -0.007300
     17 C10          2.2140    -0.0020    -1.2010 c3         1 JZG       0.041600
     18 C11          3.2740     0.0000     1.6800 ca         1 JZG      -0.047800
     19 C12          4.1740    -0.8550     1.0400 ca         1 JZG      -0.066000
     20 C13          5.5040    -0.8490     1.4060 ca         1 JZG      -0.154500
     21 C14          5.9470    -0.0000     2.4050 ca         1 JZG      -0.124000
     22 C15          5.0600     0.8490     3.0440 ca         1 JZG      -0.154500
     23 C16          3.7290     0.8580     2.6840 ca         1 JZG      -0.066000
     24 C17          1.2380     0.0190     3.5350 cc         1 JZG       0.385100
     25 C18          0.2830     0.0250     4.5120 cd         1 JZG      -0.281600
     26 C20          0.8830    -1.1370     7.8350 c3         1 JZG      -0.178400
     27 C21          0.2560    -1.1290     9.2060 c          1 JZG       0.662100
     28 C22          0.0880    -2.0120    11.4080 ca         1 JZG       0.063600
     29 C23         -0.1970    -3.1790    12.1050 ca         1 JZG      -0.143000
     30 C24         -0.6860    -3.1140    13.3920 ca         1 JZG      -0.101500
     31 C25         -0.8940    -1.8740    13.9940 cp         1 JZG      -0.058000
     32 C26         -0.6070    -0.7040    13.2940 ca         1 JZG      -0.101500
     33 C27         -0.1130    -0.7740    12.0080 ca         1 JZG      -0.143000
     34 C28         -1.4210    -1.8000    15.3790 cp         1 JZG      -0.025000
     35 C29         -1.6300    -0.5620    15.9830 ca         1 JZG      -0.122000
     36 C30         -2.1200    -0.4990    17.2720 ca         1 JZG      -0.126500
     37 C31         -2.4040    -1.6630    17.9640 ca         1 JZG      -0.133000
     38 C32         -2.1980    -2.8940    17.3700 ca         1 JZG      -0.126500
     39 C33         -1.7130    -2.9690    16.0800 ca         1 JZG      -0.122000
     40 HO1         -3.0400     0.7280    -2.3020 ho         1 JZG       0.397000
     41 H2          -0.7290    -0.1340    -2.0760 ha         1 JZG       0.116000
     42 H5          -2.2690     0.1610     2.6040 ha         1 JZG       0.175000
     43 HN5          1.2100    -2.8180     9.8440 hn         1 JZG       0.326500
     44 H10          2.4810    -1.0210    -1.4540 h1         1 JZG       0.042033
     45 H10A         1.6670     0.4430    -2.0240 h1         1 JZG       0.042033
     46 H10B         3.1140     0.5710    -1.0140 h1         1 JZG       0.042033
     47 H12          3.8280    -1.5200     0.2580 ha         1 JZG       0.138500
     48 H13          6.2040    -1.5110     0.9100 ha         1 JZG       0.119500
     49 H14          6.9920    -0.0020     2.6900 ha         1 JZG       0.114000
     50 H15          5.4130     1.5120     3.8240 ha         1 JZG       0.119500
     51 H16          3.0360     1.5230     3.1850 ha         1 JZG       0.138500
     52 H18         -0.7910     0.0240     4.3730 h4         1 JZG       0.208000
     53 H19          0.5860     0.9680     7.5220 h1         1 JZG       0.084700
     54 H19A        -0.7320    -0.0500     6.9250 h1         1 JZG       0.084700
     55 H20          1.9590    -1.0470     7.9290 hc         1 JZG       0.082700
     56 H20A         0.6410    -2.0660     7.3320 hc         1 JZG       0.082700
     57 H23         -0.0340    -4.1420    11.6370 ha         1 JZG       0.146500
     58 H24         -0.9080    -4.0240    13.9350 ha         1 JZG       0.134500
     59 H26         -0.7660     0.2610    13.7610 ha         1 JZG       0.134500
     60 H27          0.1100     0.1350    11.4630 ha         1 JZG       0.146500
     61 H29         -1.4080     0.3500    15.4420 ha         1 JZG       0.133500
     62 H30         -2.2830     0.4630    17.7420 ha         1 JZG       0.127000
     63 H31         -2.7870    -1.6090    18.9760 ha         1 JZG       0.125000
     64 H32         -2.4240    -3.8020    17.9160 ha         1 JZG       0.127000
     65 H33         -1.5520    -3.9340    15.6160 ha         1 JZG       0.133500
     66 O2          -4.9770     0.0040     0.0310 o          1 JZG      -0.829800
     67 O3          -4.5710     0.0050     2.2140 o          1 JZG      -0.829800
     68 C19          0.3430     0.0390     7.0200 c3         1 JZG       0.076300
@<TRIPOS>BOND
     1     1     2 1
     2     1     4 ar
     3     1    13 ar
     4     2    16 1
     5     2    17 1
     6     3     6 1
     7     3    40 1
     8     4     6 ar
     9     4    41 1
    10     5     7 2
    11     5    24 1
    12    66    14 1
    13     6     8 ar
    14     7     9 1
    15    67    14 1
    16     8    11 ar
    17     8    14 1
    18     9    25 1
    19     9    68 1
    20    10    27 2
    21    11    13 ar
    22    11    42 1
    23    12    27 1
    24    12    28 1
    25    12    43 1
    26    13    15 1
    27    15    16 2
    28    15    24 1
    29    16    18 1
    30    17    44 1
    31    17    45 1
    32    17    46 1
    33    18    19 ar
    34    18    23 ar
    35    19    20 ar
    36    19    47 1
    37    20    21 ar
    38    20    48 1
    39    21    22 ar
    40    21    49 1
    41    22    23 ar
    42    22    50 1
    43    23    51 1
    44    24    25 2
    45    25    52 1
    46    68    26 1
    47    68    53 1
    48    68    54 1
    49    26    27 1
    50    26    55 1
    51    26    56 1
    52    28    29 ar
    53    28    33 ar
    54    29    30 ar
    55    29    57 1
    56    30    31 ar
    57    30    58 1
    58    31    32 ar
    59    31    34 1
    60    32    33 ar
    61    32    59 1
    62    33    60 1
    63    34    35 ar
    64    34    39 ar
    65    35    36 ar
    66    35    61 1
    67    36    37 ar
    68    36    62 1
    69    37    38 ar
    70    37    63 1
    71    38    39 ar
    72    38    64 1
    73    39    65 1
@<TRIPOS>SUBSTRUCTURE
     1 JZG         1 TEMP              0 ****  ****    0 ROOT
