@<TRIPOS>MOLECULE
JZH
   41    45     1     0     0
SMALL
bcc


@<TRIPOS>ATOM
      1 O1           0.0000     0.0000     0.0000 oh         1 JZH      -0.503100
      2 C2           1.3590     0.0000     0.0000 ca         1 JZH       0.121100
      3 C3           2.0540     0.0000     1.2010 ca         1 JZH      -0.138500
      4 C4           3.4350     0.0010     1.1990 ca         1 JZH      -0.082500
      5 C5           4.1260     0.0010     0.0020 ca         1 JZH      -0.112300
      6 C6           3.4360     0.0020    -1.1960 ca         1 JZH      -0.082500
      7 C7           2.0550    -0.0040    -1.2000 ca         1 JZH      -0.138500
      8 C8           5.6330     0.0020     0.0020 c3         1 JZH       0.043800
      9 C9           6.1560     1.0520     0.9650 c          1 JZH       0.611500
     10 O10          7.1520     0.8260     1.6210 o          1 JZH      -0.689500
     11 N11          5.5350     2.2120     1.0920 ns         1 JZH      -0.026100
     12 C12          4.2670     2.5230     0.6430 ca         1 JZH      -0.081400
     13 C13          3.3020     2.6840     1.6480 ca         1 JZH      -0.117000
     14 C14          1.9930     2.9730     1.3380 ca         1 JZH      -0.086000
     15 C15          1.6100     3.1090     0.0150 ca         1 JZH      -0.087000
     16 C16          2.5450     2.9650    -0.9830 ca         1 JZH      -0.089000
     17 C17          3.8880     2.6800    -0.6790 cp         1 JZH      -0.021000
     18 C18          4.8020     2.5990    -1.8330 cp         1 JZH       0.061000
     19 C19          4.7540     3.6250    -2.7930 ca         1 JZH      -0.257300
     20 C20          5.5670     3.5810    -3.9060 ca         1 JZH       0.422200
     21 N21          6.4160     2.5960    -4.1500 nb         1 JZH      -0.586000
     22 C22          6.5110     1.6000    -3.2740 ca         1 JZH       0.240800
     23 N23          7.2760     0.4720    -3.2700 na         1 JZH       0.259900
     24 C25          7.0640    -0.2320    -2.1090 cc         1 JZH      -0.237100
     25 C26          6.1570     0.4020    -1.3610 cd         1 JZH      -0.145400
     26 C27          5.7270     1.5900    -2.0880 ca         1 JZH      -0.205100
     27 HO1         -0.3140    -0.8890    -0.0110 ho         1 JZH       0.402000
     28 H3           1.5130    -0.0000     2.1400 ha         1 JZH       0.114500
     29 H4           3.9780     0.0010     2.1370 ha         1 JZH       0.121000
     30 H6           3.9800     0.0000    -2.1330 ha         1 JZH       0.121000
     31 H7           1.5150    -0.0040    -2.1390 ha         1 JZH       0.114500
     32 H8           6.0130    -0.9750     0.2750 hc         1 JZH       0.061700
     33 HN11         6.0360     2.9390     1.5630 hn         1 JZH       0.172500
     34 H13          3.5920     2.5790     2.6860 ha         1 JZH       0.112000
     35 H14          1.2610     3.0860     2.1280 ha         1 JZH       0.107000
     36 H15          0.5810     3.3380    -0.2330 ha         1 JZH       0.111000
     37 H16          2.2420     3.0720    -2.0180 ha         1 JZH       0.114000
     38 H19          4.0800     4.4620    -2.6530 ha         1 JZH       0.121000
     39 H20          5.5060     4.3950    -4.6180 h4         1 JZH      -0.023900
     40 HN23         7.8990     0.1980    -4.0040 hn         1 JZH       0.124700
     41 H25          7.5570    -1.1590    -1.8420 h4         1 JZH       0.150000
@<TRIPOS>BOND
     1     1     2 1   
     2     1    27 1   
     3     2     3 ar  
     4     2     7 ar  
     5     3     4 ar  
     6     3    28 1   
     7     4     5 ar  
     8     4    29 1   
     9     5     6 ar  
    10     5     8 1   
    11     6     7 ar  
    12     6    30 1   
    13     7    31 1   
    14     8     9 1   
    15     8    25 1   
    16     8    32 1   
    17     9    10 2   
    18     9    11 1   
    19    11    12 1   
    20    11    33 1   
    21    12    13 ar  
    22    12    17 ar  
    23    13    14 ar  
    24    13    34 1   
    25    14    15 ar  
    26    14    35 1   
    27    15    16 ar  
    28    15    36 1   
    29    16    17 ar  
    30    16    37 1   
    31    17    18 1   
    32    18    19 ar  
    33    18    26 ar  
    34    19    20 ar  
    35    19    38 1   
    36    20    21 ar  
    37    20    39 1   
    38    21    22 ar  
    39    22    23 1   
    40    22    26 ar  
    41    23    24 1   
    42    23    40 1   
    43    24    25 2   
    44    24    41 1   
    45    25    26 1   
@<TRIPOS>SUBSTRUCTURE
     1 JZH         1 TEMP              0 ****  ****    0 ROOT
