@<TRIPOS>MOLECULE
JZI
   44    48     1     0     0
SMALL
bcc


@<TRIPOS>ATOM
      1 C1           0.0000     0.0000     0.0000 c2         1 JZI      -0.065000
      2 C2           1.4770     0.0000     0.0000 c3         1 JZI       0.134000
      3 C3           2.1790     0.0000     1.2060 c2         1 JZI      -0.209500
      4 C4           3.5590     0.0000     1.1990 c2         1 JZI      -0.065500
      5 C5           4.2470    -0.0010    -0.0020 c2         1 JZI      -0.192000
      6 C6           3.5580    -0.0020    -1.2010 c2         1 JZI      -0.065500
      7 C7           2.1780    -0.0060    -1.2070 c2         1 JZI      -0.209500
      8 C8          -2.6810     1.1790    -1.9750 c3         1 JZI      -0.163000
      9 C9          -2.1710    -0.0010    -1.1460 DU         1 JZI      -0.018000
     10 C10         -4.1840     1.2520    -1.8740 c2         1 JZI       0.395000
     11 O11         -4.8600     1.1610    -2.8690 o          1 JZI      -0.610000
     12 O12         -4.7680     1.4180    -0.6770 o          1 JZI      -0.610000
     13 C13         -0.6630    -0.0010    -1.1480 c2         1 JZI      -0.193000
     14 C14         -0.7770     3.6930    -9.9300 ca         1 JZI      -0.120000
     15 C15         -0.5440     2.4050   -10.4100 ca         1 JZI      -0.108000
     16 C16         -0.6710     1.3210    -9.5960 ca         1 JZI      -0.095000
     17 C17         -1.1380     3.9030    -8.6350 ca         1 JZI      -0.073000
     18 C18         -1.2790     2.8070    -7.7650 ca         1 JZI      -0.049000
     19 C19         -1.0420     1.4970    -8.2520 ca         1 JZI      -0.027000
     20 C20         -1.1790     0.3960    -7.3880 ca         1 JZI      -0.112000
     21 C21         -1.5390     0.5900    -6.0940 ca         1 JZI      -0.075000
     22 C22         -1.7770     1.8850    -5.5970 ca         1 JZI      -0.108000
     23 C23         -1.6490     2.9890    -6.4240 ca         1 JZI      -0.028000
     24 N25         -2.2940     0.9980    -3.3750 ns         1 JZI       0.055000
     25 O26         -2.3750     3.1850    -3.7520 o          1 JZI      -0.417000
     26 H1           0.6120     0.8740    -0.1870 DU         1 JZI       0.032000
     27 H3           1.6420    -0.0570     2.1450 ha         1 JZI       0.121500
     28 H4           4.1040     0.0020     2.1350 ha         1 JZI       0.090500
     29 H5           5.3310    -0.0000    -0.0020 ha         1 JZI       0.094000
     30 H6           4.1030     0.0010    -2.1370 ha         1 JZI       0.090500
     31 H7           1.9460    -0.1260    -2.2580 ha         1 JZI       0.121500
     32 H8          -2.2490     2.0980    -1.5970 h1         1 JZI       0.103000
     33 H9          -2.5320    -0.9280    -1.5760 ha         1 JZI       0.087500
     34 H9A         -2.5310     0.0890    -0.1290 ha         1 JZI       0.087500
     35 H13         -1.2750     0.8740    -0.9650 DU         1 JZI       0.127000
     36 H16         -0.4860     0.3260    -9.9830 ha         1 JZI       0.100000
     37 H17         -1.3160     4.9090    -8.2760 ha         1 JZI       0.106000
     38 H20         -0.9990    -0.6070    -7.7550 ha         1 JZI       0.101000
     39 H21         -1.6430    -0.2630    -5.4340 ha         1 JZI       0.108000
     40 H23         -1.8340     3.9850    -6.0390 ha         1 JZI       0.132000
     41 HN25        -2.1480     0.0770    -3.7390 hn         1 JZI       0.079000
     42 C24         -2.1680     2.0690    -4.1840 c2         1 JZI       0.262000
     43 H14         -0.6690     4.5390   -10.5980 ha         1 JZI       0.094000
     44 H15         -0.2580     2.2640   -11.4450 ha         1 JZI       0.092000
@<TRIPOS>BOND
     1     1     2 1   
     2     1    13 1   
     3     1    26 1   
     4     2     3 1   
     5     2     7 1   
     6     2    26 1   
     7     3     4 1   
     8     3    27 1   
     9     4     5 1   
    10     4    28 1   
    11     5     6 1   
    12     5    29 1   
    13     6     7 1   
    14     6    30 1   
    15     7    31 1   
    16     8     9 1   
    17     8    10 1   
    18     8    24 1   
    19     8    32 1   
    20     9    13 1   
    21     9    33 1   
    22     9    34 1   
    23     9    35 1   
    24    10    11 1   
    25    10    12 1   
    26    13    35 1   
    27    14    15 1   
    28    14    17 1   
    29    14    43 1   
    30    15    16 1   
    31    15    44 1   
    32    16    19 1   
    33    16    36 1   
    34    17    18 1   
    35    17    37 1   
    36    18    19 1   
    37    18    23 1   
    38    19    20 1   
    39    20    21 1   
    40    20    38 1   
    41    21    22 1   
    42    21    39 1   
    43    22    23 1   
    44    22    42 1   
    45    23    40 1   
    46    24    41 1   
    47    24    42 1   
    48    25    42 1   
@<TRIPOS>SUBSTRUCTURE
     1 JZI         1 TEMP              0 ****  ****    0 ROOT
