@<TRIPOS>MOLECULE
molecule
   44    46     1     0     0
SMALL
bcc


@<TRIPOS>ATOM
      1 C1           0.0000     0.0000     0.0000 ce         1 JZI      -0.168200
      2 C2           1.4770     0.0000     0.0000 ca         1 JZI      -0.003800
      3 C3           2.1790     0.0000     1.2060 ca         1 JZI      -0.130000
      4 C4           3.5590     0.0000     1.1990 ca         1 JZI      -0.140500
      5 C5           4.2470    -0.0010    -0.0020 ca         1 JZI      -0.151000
      6 C6           3.5580    -0.0020    -1.2010 ca         1 JZI      -0.140500
      7 C7           2.1780    -0.0060    -1.2070 ca         1 JZI      -0.130000
      8 C8          -2.6810     1.1790    -1.9750 c3         1 JZI       0.008700
      9 C9          -2.1710    -0.0010    -1.1460 c3         1 JZI      -0.052200
     10 C10         -4.1840     1.2520    -1.8740 c          1 JZI       0.885600
     11 O11         -4.8600     1.1610    -2.8690 o          1 JZI      -0.834800
     12 O12         -4.7680     1.4180    -0.6770 o          1 JZI      -0.834800
     13 C13         -0.6630    -0.0010    -1.1480 c2         1 JZI      -0.122200
     14 C14         -0.7770     3.6930    -9.9300 ca         1 JZI      -0.144000
     15 C15         -0.5440     2.4050   -10.4100 ca         1 JZI      -0.132000
     16 C16         -0.6710     1.3210    -9.5960 ca         1 JZI      -0.122000
     17 C17         -1.1380     3.9030    -8.6350 ca         1 JZI      -0.103000
     18 C18         -1.2790     2.8070    -7.7650 ca         1 JZI      -0.047000
     19 C19         -1.0420     1.4970    -8.2520 ca         1 JZI      -0.028000
     20 C20         -1.1790     0.3960    -7.3880 ca         1 JZI      -0.140000
     21 C21         -1.5390     0.5900    -6.0940 ca         1 JZI      -0.097000
     22 C22         -1.7770     1.8850    -5.5970 ca         1 JZI      -0.119600
     23 C23         -1.6490     2.9890    -6.4240 ca         1 JZI      -0.063000
     24 N25         -2.2940     0.9980    -3.3750 ns         1 JZI      -0.542900
     25 O26         -2.3750     3.1850    -3.7520 o          1 JZI      -0.612100
     26 H1          -0.5410     0.0010     0.9380 ha         1 JZI       0.135000
     27 H3           1.6420     0.0540     2.1450 ha         1 JZI       0.136000
     28 H4           4.1040     0.0020     2.1350 ha         1 JZI       0.118500
     29 H5           5.3310    -0.0000    -0.0020 ha         1 JZI       0.114000
     30 H6           4.1030     0.0000    -2.1370 ha         1 JZI       0.118500
     31 H7           1.9920    -0.0600    -2.2720 ha         1 JZI       0.136000
     32 H8          -2.2490     2.0980    -1.5970 h1         1 JZI       0.079700
     33 H9          -2.5320    -0.9280    -1.5760 hc         1 JZI       0.065700
     34 H9A         -2.5310     0.0890    -0.1290 hc         1 JZI       0.065700
     35 H13         -0.1220    -0.0030    -2.0860 ha         1 JZI       0.117000
     36 H16         -0.4860     0.3260    -9.9830 ha         1 JZI       0.125000
     37 H17         -1.3160     4.9090    -8.2760 ha         1 JZI       0.133000
     38 H20         -0.9990    -0.6070    -7.7550 ha         1 JZI       0.125000
     39 H21         -1.6430    -0.2630    -5.4340 ha         1 JZI       0.131000
     40 H23         -1.8340     3.9850    -6.0390 ha         1 JZI       0.162000
     41 HN25        -2.1530     0.0770    -3.7400 hn         1 JZI       0.296500
     42 C24         -2.1680     2.0690    -4.1840 c          1 JZI       0.670700
     43 H14         -0.6690     4.5390   -10.5980 ha         1 JZI       0.119000
     44 H15         -0.2580     2.2640   -11.4450 ha         1 JZI       0.117000
@<TRIPOS>BOND
     1     1    13 2
     2     1     2 1
     3     1    26 1
     4     7     2 ar
     5     2     3 ar
     6     3     4 ar
     7     3    27 1
     8     5     4 ar
     9     4    28 1
    10     6     5 ar
    11     5    29 1
    12     7     6 ar
    13     6    30 1
    14     7    31 1
    15    10     8 1
    16    24     8 1
    17     9     8 1
    18     8    32 1
    19     9    13 1
    20     9    33 1
    21     9    34 1
    22    11    10 1
    23    10    12 1
    24    13    35 1
    25    14    17 ar
    26    14    15 ar
    27    14    43 1
    28    15    16 ar
    29    15    44 1
    30    16    19 ar
    31    16    36 1
    32    17    18 ar
    33    17    37 1
    34    18    23 ar
    35    18    19 ar
    36    19    20 ar
    37    20    21 ar
    38    20    38 1
    39    22    21 ar
    40    21    39 1
    41    23    22 ar
    42    22    42 1
    43    23    40 1
    44    24    42 1
    45    42    25 2
    46    24    41 1
@<TRIPOS>SUBSTRUCTURE
     1 JZI         1 TEMP              0 ****  ****    0 ROOT
