@<TRIPOS>MOLECULE
JZJ
   38    41     1     0     0
SMALL
bcc


@<TRIPOS>ATOM
      1 N1           0.0000     0.0000     0.0000 n7         1 JZJ      -0.594200
      2 N3           3.2290    -1.5890    -0.7990 nc         1 JZJ      -0.599000
      3 C4           1.9780    -1.2330    -0.7020 cd         1 JZJ       0.179800
      4 C5           0.1130     1.6910     1.7580 ca         1 JZJ      -0.095300
      5 C6           1.2630     1.0920     2.2240 ca         1 JZJ      -0.070300
      6 C7          -0.4990     2.6840     2.5090 ca         1 JZJ      -0.096000
      7 C8           1.8060     1.4890     3.4370 ca         1 JZJ      -0.099000
      8 C10          1.1970     2.4800     4.1820 ca         1 JZJ      -0.097000
      9 C13          4.5520    -3.4820    -1.8220 ca         1 JZJ      -0.088500
     10 C15          5.7880    -2.9920    -1.4040 ca         1 JZJ      -0.088500
     11 C17          6.9420    -3.6860    -1.7070 ca         1 JZJ      -0.084500
     12 C18          6.8730    -4.8670    -2.4260 ca         1 JZJ       0.033100
     13 C14          4.4880    -4.6710    -2.5460 ca         1 JZJ      -0.088500
     14 C16          5.6470    -5.3580    -2.8430 ca         1 JZJ      -0.084500
     15 C11          3.3080    -2.7430    -1.4930 cc         1 JZJ       0.352800
     16 N2           1.2110    -2.1470    -1.3340 na         1 JZJ       0.275100
     17 C12          2.0460    -3.1050    -1.8380 cd         1 JZJ      -0.436600
     18 C1           1.4720     0.0000     0.0000 c3         1 JZJ       0.116200
     19 C2          -0.5080     1.3020     0.4420 c3         1 JZJ       0.218100
     20 C3           1.9560     0.0000     1.4500 c3         1 JZJ       0.042900
     21 C9           0.0400     3.0780     3.7170 ca         1 JZJ      -0.104000
     22 HN1         -0.3340    -0.1920    -0.9240 hn         1 JZJ       0.242800
     23 H7          -1.4050     3.1540     2.1450 ha         1 JZJ       0.103000
     24 H8           2.7120     1.0210     3.8020 ha         1 JZJ       0.108000
     25 H10          1.6230     2.7860     5.1300 ha         1 JZJ       0.103000
     26 H15          5.8420    -2.0680    -0.8410 ha         1 JZJ       0.117000
     27 H17          7.9030    -3.3060    -1.3820 ha         1 JZJ       0.115000
     28 H14          3.5300    -5.0560    -2.8740 ha         1 JZJ       0.117000
     29 H16          5.5990    -6.2820    -3.4060 ha         1 JZJ       0.115000
     30 HN2          0.2140    -2.1270    -1.4180 hn         1 JZJ       0.127700
     31 H12          1.7560    -3.9840    -2.4010 h4         1 JZJ       0.158000
     32 H1           1.8350     0.8880    -0.5040 h1         1 JZJ       0.028700
     33 H2          -1.5800     1.2280     0.5740 h1         1 JZJ       0.016200
     34 H2A         -0.2410     2.0460    -0.2990 h1         1 JZJ       0.016200
     35 H3           1.7090    -0.9540     1.8990 hc         1 JZJ       0.039700
     36 H3A          3.0230     0.1900     1.4600 hc         1 JZJ       0.039700
     37 H9          -0.4410     3.8560     4.2980 ha         1 JZJ       0.103000
     38 Br           8.4570    -5.8140    -2.8380 br         1 JZJ      -0.140100
@<TRIPOS>BOND
     1     1    18 1   
     2     1    19 1   
     3     1    22 1   
     4     2     3 2   
     5     2    15 1   
     6     3    16 1   
     7     3    18 1   
     8     4     5 ar  
     9     4     6 ar  
    10     4    19 1   
    11     5     7 ar  
    12     5    20 1   
    13     6    21 ar  
    14     6    23 1   
    15     7     8 ar  
    16     7    24 1   
    17     8    21 ar  
    18     8    25 1   
    19     9    10 ar  
    20     9    13 ar  
    21     9    15 1   
    22    10    11 ar  
    23    10    26 1   
    24    11    12 ar  
    25    11    27 1   
    26    12    14 ar  
    27    12    38 1   
    28    13    14 ar  
    29    13    28 1   
    30    14    29 1   
    31    15    17 2   
    32    16    17 1   
    33    16    30 1   
    34    17    31 1   
    35    18    20 1   
    36    18    32 1   
    37    19    33 1   
    38    19    34 1   
    39    20    35 1   
    40    20    36 1   
    41    21    37 1   
@<TRIPOS>SUBSTRUCTURE
     1 JZJ         1 TEMP              0 ****  ****    0 ROOT
