@<TRIPOS>MOLECULE
JZK
   54    57     1     0     0
SMALL
bcc


@<TRIPOS>ATOM
      1 N1           0.0000     0.0000     0.0000 nz         1 JZK       0.201600
      2 C2           1.3470     0.0000     0.0000 c          1 JZK       0.357700
      3 O3           1.9550     0.0000     1.0530 o          1 JZK      -0.452100
      4 C4           2.0870     0.0000    -1.2780 ca         1 JZK      -0.259600
      5 C5           1.3850     0.0000    -2.4910 ca         1 JZK      -0.131000
      6 C6           2.0570     0.0000    -3.6790 ca         1 JZK      -0.040000
      7 C7           3.4450     0.0000    -3.6960 ca         1 JZK      -0.221200
      8 N8           4.3890     0.0000    -4.7070 na         1 JZK       0.291700
      9 C9           4.1180     0.0000    -6.1460 c3         1 JZK      -0.040700
     10 C10          4.0240     1.4430    -6.6470 c3         1 JZK      -0.072700
     11 C11          3.8660     1.4450    -8.1690 c3         1 JZK      -0.028400
     12 C12          3.7720     2.8880    -8.6700 c3         1 JZK      -0.020400
     13 C13          2.5620     3.5710    -8.0300 c3         1 JZK      -0.026400
     14 C14          2.7200     3.5690    -6.5090 c3         1 JZK      -0.020400
     15 C15          2.8140     2.1270    -6.0080 c3         1 JZK      -0.028400
     16 C16          5.6200     0.0010    -4.1140 cc         1 JZK       0.379700
     17 N17          6.8230     0.0000    -4.7880 nu         1 JZK      -0.435200
     18 C18          8.0810     0.0010    -4.0400 c3         1 JZK       0.231100
     19 C19          9.2400     0.0020    -5.0040 ca         1 JZK      -0.137300
     20 C20          9.9680     1.1580    -5.2090 ca         1 JZK      -0.069000
     21 C21         11.0310     1.1590    -6.0940 ca         1 JZK      -0.094000
     22 C22         11.3640     0.0030    -6.7750 ca         1 JZK      -0.070000
     23 C23         10.6350    -1.1540    -6.5710 ca         1 JZK      -0.093000
     24 C24          9.5760    -1.1570    -5.6820 ca         1 JZK      -0.026600
     25 Cl25         8.6660    -2.6120    -5.4190 cl         1 JZK      -0.021400
     26 N26          5.4880     0.0010    -2.8110 nd         1 JZK      -0.588100
     27 C27          4.1680     0.0010    -2.4880 ca         1 JZK       0.092400
     28 C28          3.4790     0.0070    -1.2770 ca         1 JZK       0.086000
     29 HN1         -0.3340    -0.8170    -0.4720 hn         1 JZK       0.243800
     30 HN1A        -0.3340     0.0000     0.9440 hn         1 JZK       0.243800
     31 H5           0.3020    -0.0010    -2.4850 ha         1 JZK       0.078000
     32 H6           1.5050     0.0000    -4.6110 ha         1 JZK       0.121000
     33 H9           3.1820    -0.5100    -6.3380 h1         1 JZK       0.044700
     34 H9A          4.9210    -0.5100    -6.6640 h1         1 JZK       0.044700
     35 H10          4.9240     1.9830    -6.3780 hc         1 JZK       0.041700
     36 H11          2.9630     0.9110    -8.4380 hc         1 JZK       0.017700
     37 H11A         4.7250     0.9630    -8.6210 hc         1 JZK       0.017700
     38 H12          4.6730     3.4230    -8.3970 hc         1 JZK       0.020200
     39 H12A         3.6570     2.8880    -9.7470 hc         1 JZK       0.020200
     40 H13          1.6610     3.0330    -8.2990 hc         1 JZK       0.020200
     41 H13A         2.4970     4.5930    -8.3840 hc         1 JZK       0.020200
     42 H14          3.6230     4.1040    -6.2400 hc         1 JZK       0.020200
     43 H14A         1.8610     4.0510    -6.0580 hc         1 JZK       0.020200
     44 H15          2.9290     2.1280    -4.9310 hc         1 JZK       0.017700
     45 H15A         1.9130     1.5920    -6.2810 hc         1 JZK       0.017700
     46 HN17         6.8350    -0.0310    -5.7890 hn         1 JZK       0.302800
     47 H18          8.1310    -0.8830    -3.4160 h1         1 JZK       0.039200
     48 H18A         8.1300     0.8860    -3.4160 h1         1 JZK       0.039200
     49 H20          9.7070     2.0640    -4.6750 ha         1 JZK       0.112000
     50 H21         11.6020     2.0650    -6.2540 ha         1 JZK       0.114000
     51 H22         12.1940     0.0040    -7.4700 ha         1 JZK       0.114000
     52 H23         10.8970    -2.0600    -7.1040 ha         1 JZK       0.122000
     53 H28          4.0190     0.1390    -0.3470 ha         1 JZK       0.136000
     54 H131        -0.3340     0.8720    -0.3610 hn         1 JZK       0.243800
@<TRIPOS>BOND
     1     1     2 1   
     2     1    29 1   
     3     1    30 1   
     4     1    54 1   
     5     2     3 2   
     6     2     4 1   
     7     4     5 ar  
     8     4    28 ar  
     9     5     6 ar  
    10     5    31 1   
    11     6     7 ar  
    12     6    32 1   
    13     7     8 1   
    14     7    27 ar  
    15     8     9 1   
    16     8    16 1   
    17     9    10 1   
    18     9    33 1   
    19     9    34 1   
    20    10    11 1   
    21    10    15 1   
    22    10    35 1   
    23    11    12 1   
    24    11    36 1   
    25    11    37 1   
    26    12    13 1   
    27    12    38 1   
    28    12    39 1   
    29    13    14 1   
    30    13    40 1   
    31    13    41 1   
    32    14    15 1   
    33    14    42 1   
    34    14    43 1   
    35    15    44 1   
    36    15    45 1   
    37    16    17 1   
    38    16    26 2   
    39    17    18 1   
    40    17    46 1   
    41    18    19 1   
    42    18    47 1   
    43    18    48 1   
    44    19    20 ar  
    45    19    24 ar  
    46    20    21 ar  
    47    20    49 1   
    48    21    22 ar  
    49    21    50 1   
    50    22    23 ar  
    51    22    51 1   
    52    23    24 ar  
    53    23    52 1   
    54    24    25 1   
    55    26    27 1   
    56    27    28 ar  
    57    28    53 1   
@<TRIPOS>SUBSTRUCTURE
     1 JZK         1 TEMP              0 ****  ****    0 ROOT
