@<TRIPOS>MOLECULE
molecule
   54    57     1     0     0
SMALL
bcc


@<TRIPOS>ATOM
      1 N1           0.0000     0.0000     0.0000 nz         1 JZK      -0.677400
      2 C2           1.3470     0.0000     0.0000 c          1 JZK       0.508700
      3 O3           1.9550     0.0000     1.0530 o          1 JZK      -0.437100
      4 C4           2.0870     0.0000    -1.2780 ca         1 JZK      -0.232600
      5 C5           1.3850     0.0000    -2.4910 ca         1 JZK      -0.145000
      6 C6           2.0570     0.0000    -3.6790 ca         1 JZK      -0.087000
      7 C7           3.4450     0.0000    -3.6960 ca         1 JZK      -0.052200
      8 N8           4.3890     0.0000    -4.7070 na         1 JZK      -0.167300
      9 C9           4.1180     0.0000    -6.1460 c3         1 JZK       0.042300
     10 C10          4.0240     1.4430    -6.6470 c3         1 JZK      -0.095700
     11 C11          3.8660     1.4450    -8.1690 c3         1 JZK      -0.077900
     12 C12          3.7720     2.8880    -8.6700 c3         1 JZK      -0.076900
     13 C13          2.5620     3.5710    -8.0300 c3         1 JZK      -0.081400
     14 C14          2.7200     3.5690    -6.5090 c3         1 JZK      -0.076900
     15 C15          2.8140     2.1270    -6.0080 c3         1 JZK      -0.077900
     16 C16          5.6200     0.0010    -4.1140 cc         1 JZK       0.706700
     17 N17          6.8230     0.0000    -4.7880 nu         1 JZK      -0.852200
     18 C18          8.0810     0.0010    -4.0400 c3         1 JZK       0.299100
     19 C19          9.2400     0.0020    -5.0040 ca         1 JZK      -0.128300
     20 C20          9.9680     1.1580    -5.2090 ca         1 JZK      -0.098000
     21 C21         11.0310     1.1590    -6.0940 ca         1 JZK      -0.124000
     22 C22         11.3640     0.0030    -6.7750 ca         1 JZK      -0.100000
     23 C23         10.6350    -1.1540    -6.5710 ca         1 JZK      -0.119000
     24 C24          9.5760    -1.1570    -5.6820 ca         1 JZK       0.036400
     25 Cl25         8.6660    -2.6120    -5.4190 cl         1 JZK      -0.102400
     26 N26          5.4880     0.0010    -2.8110 nd         1 JZK      -0.657100
     27 C27          4.1680     0.0010    -2.4880 ca         1 JZK       0.125400
     28 C28          3.4790     0.0070    -1.2770 ca         1 JZK       0.027000
     29 HN1         -0.3340    -0.8170    -0.4720 hn         1 JZK       0.474800
     30 HN1A        -0.3340     0.0000     0.9440 hn         1 JZK       0.474800
     31 H5           0.3020    -0.0010    -2.4850 ha         1 JZK       0.105000
     32 H6           1.5050     0.0000    -4.6110 ha         1 JZK       0.151000
     33 H9           3.1820    -0.5100    -6.3380 h1         1 JZK       0.071200
     34 H9A          4.9210    -0.5100    -6.6640 h1         1 JZK       0.071200
     35 H10          4.9240     1.9830    -6.3780 hc         1 JZK       0.067700
     36 H11          2.9630     0.9110    -8.4380 hc         1 JZK       0.042450
     37 H11A         4.7250     0.9630    -8.6210 hc         1 JZK       0.042450
     38 H12          4.6730     3.4230    -8.3970 hc         1 JZK       0.049200
     39 H12A         3.6570     2.8880    -9.7470 hc         1 JZK       0.049200
     40 H13          1.6610     3.0330    -8.2990 hc         1 JZK       0.048700
     41 H13A         2.4970     4.5930    -8.3840 hc         1 JZK       0.048700
     42 H14          3.6230     4.1040    -6.2400 hc         1 JZK       0.049200
     43 H14A         1.8610     4.0510    -6.0580 hc         1 JZK       0.049200
     44 H15          2.9290     2.1280    -4.9310 hc         1 JZK       0.042450
     45 H15A         1.9130     1.5920    -6.2810 hc         1 JZK       0.042450
     46 HN17         6.8350    -0.0310    -5.7890 hn         1 JZK       0.458800
     47 H18          8.1310    -0.8830    -3.4160 h1         1 JZK       0.070700
     48 H18A         8.1300     0.8860    -3.4160 h1         1 JZK       0.070700
     49 H20          9.7070     2.0640    -4.6750 ha         1 JZK       0.143000
     50 H21         11.6020     2.0650    -6.2540 ha         1 JZK       0.145000
     51 H22         12.1940     0.0040    -7.4700 ha         1 JZK       0.148000
     52 H23         10.8970    -2.0600    -7.1040 ha         1 JZK       0.154000
     53 H28          4.0190     0.1390    -0.3470 ha         1 JZK       0.176000
     54 H131        -0.3340     0.8720    -0.3610 hn         1 JZK       0.474800
@<TRIPOS>BOND
     1     1     2 1
     2     2     3 2
     3     2     4 1
     4     4     5 ar
     5     4    28 ar
     6     5     6 ar
     7     6     7 ar
     8     7     8 1
     9     7    27 ar
    10     8     9 1
    11     8    16 1
    12     9    10 1
    13    10    11 1
    14    10    15 1
    15    11    12 1
    16    12    13 1
    17    13    14 1
    18    14    15 1
    19    16    17 1
    20    16    26 2
    21    17    18 1
    22    18    19 1
    23    19    20 ar
    24    19    24 ar
    25    20    21 ar
    26    21    22 ar
    27    22    23 ar
    28    23    24 ar
    29    24    25 1
    30    26    27 1
    31    27    28 ar
    32     1    29 1
    33     1    30 1
    34     5    31 1
    35     6    32 1
    36     9    33 1
    37     9    34 1
    38    10    35 1
    39    11    36 1
    40    11    37 1
    41    12    38 1
    42    12    39 1
    43    13    40 1
    44    13    41 1
    45    14    42 1
    46    14    43 1
    47    15    44 1
    48    15    45 1
    49    17    46 1
    50    18    47 1
    51    18    48 1
    52    20    49 1
    53    21    50 1
    54    22    51 1
    55    23    52 1
    56    28    53 1
    57    54     1 1
@<TRIPOS>SUBSTRUCTURE
     1 JZK         1 TEMP              0 ****  ****    0 ROOT
