@<TRIPOS>MOLECULE
JZL
   60    63     1     0     0
SMALL
bcc


@<TRIPOS>ATOM
      1 N1           0.0000     0.0000     0.0000 nz         1 JZL       0.199600
      2 C2           1.3480     0.0000     0.0000 c          1 JZL       0.355700
      3 O3           1.9560     0.0000     1.0530 o          1 JZL      -0.453100
      4 C4           2.0870    -0.0010    -1.2790 ca         1 JZL      -0.240600
      5 C5           1.3850    -0.0010    -2.4900 ca         1 JZL      -0.183000
      6 C6           2.0700    -0.0030    -3.6900 ca         1 JZL       0.107600
      7 N7           1.3650    -0.0030    -4.8980 nv         1 JZL      -0.540200
      8 C8           3.4640    -0.0020    -3.6960 ca         1 JZL      -0.239200
      9 N9           4.4150    -0.0040    -4.7000 na         1 JZL       0.300700
     10 C10          4.1570    -0.0060    -6.1420 c3         1 JZL      -0.048700
     11 C11          4.2120     1.4290    -6.6710 c3         1 JZL      -0.070700
     12 C12          3.0870     2.2180    -6.0590 c3         1 JZL      -0.061400
     13 C13          3.5720     3.6640    -5.8280 c3         1 JZL      -0.022400
     14 C14          3.5310     4.4640    -7.0430 c3         1 JZL      -0.032400
     15 C15          4.4560     3.9070    -8.1440 c3         1 JZL      -0.021400
     16 C16          3.7580     2.7580    -8.8200 c3         1 JZL      -0.065400
     17 C17          4.1380     1.3960    -8.2100 c3         1 JZL       0.206100
     18 O18          3.1660     0.4260    -8.6040 oh         1 JZL      -0.602800
     19 C19          5.6420    -0.0030    -4.0980 cc         1 JZL       0.374700
     20 N20          6.8490    -0.0030    -4.7620 nu         1 JZL      -0.439200
     21 C21          8.1030    -0.0030    -4.0020 c3         1 JZL       0.231100
     22 C22          9.2700    -0.0030    -4.9570 ca         1 JZL      -0.136300
     23 C23         10.0000     1.1520    -5.1560 ca         1 JZL      -0.069000
     24 C24         11.0690     1.1520    -6.0320 ca         1 JZL      -0.095000
     25 C25         11.4090    -0.0050    -6.7090 ca         1 JZL      -0.071000
     26 C26         10.6780    -1.1610    -6.5110 ca         1 JZL      -0.094000
     27 C27          9.6120    -1.1630    -5.6300 ca         1 JZL      -0.027600
     28 Cl28         8.6990    -2.6170    -5.3750 cl         1 JZL      -0.021400
     29 N29          5.4980    -0.0020    -2.7960 nd         1 JZL      -0.590100
     30 C30          4.1740    -0.0020    -2.4840 ca         1 JZL       0.100400
     31 C31          3.4790     0.0050    -1.2750 ca         1 JZL       0.071000
     32 HN1         -0.3340    -0.8210    -0.4660 hn         1 JZL       0.243467
     33 HN1A        -0.3340     0.8140    -0.4780 hn         1 JZL       0.243467
     34 H5           0.3020    -0.0050    -2.4860 ha         1 JZL       0.085000
     35 HN7          1.4060    -0.8010    -5.5010 hn         1 JZL       0.290800
     36 HN7A         0.7600     0.7620    -5.1240 hn         1 JZL       0.290800
     37 H10          3.1760    -0.4240    -6.3330 h1         1 JZL       0.053700
     38 H10A         4.9090    -0.6040    -6.6430 h1         1 JZL       0.053700
     39 H11          5.1530     1.8790    -6.3780 hc         1 JZL       0.045700
     40 H12          2.8050     1.7740    -5.1110 hc         1 JZL       0.034200
     41 H12A         2.2380     2.2230    -6.7320 hc         1 JZL       0.034200
     42 H13          4.5910     3.6360    -5.4620 hc         1 JZL       0.015200
     43 H13A         2.9380     4.1300    -5.0820 hc         1 JZL       0.015200
     44 H14          2.5140     4.4810    -7.4160 hc         1 JZL       0.021200
     45 H14A         3.8400     5.4750    -6.8060 hc         1 JZL       0.021200
     46 H15          5.3810     3.5590    -7.7000 hc         1 JZL       0.021700
     47 H15A         4.6640     4.6830    -8.8710 hc         1 JZL       0.021700
     48 H16          2.6880     2.8960    -8.7250 hc         1 JZL       0.030200
     49 H16A         4.0250     2.7570    -9.8700 hc         1 JZL       0.030200
     50 H17          5.1070     1.1020    -8.5970 h1         1 JZL      -0.000300
     51 HO18         3.3560     0.1270    -9.4770 ho         1 JZL       0.403000
     52 HN20         6.8700    -0.0490    -5.7610 hn         1 JZL       0.301800
     53 H21          8.1470     0.8830    -3.3790 h1         1 JZL       0.039200
     54 H21A         8.1470    -0.8860    -3.3770 h1         1 JZL       0.039200
     55 H23          9.7340     2.0580    -4.6250 ha         1 JZL       0.112000
     56 H24         11.6420     2.0580    -6.1870 ha         1 JZL       0.114000
     57 H25         12.2450    -0.0040    -7.3970 ha         1 JZL       0.114000
     58 H26         10.9450    -2.0670    -7.0410 ha         1 JZL       0.122000
     59 H31          4.0180    -0.0780    -0.3390 ha         1 JZL       0.136000
     60 H131        -0.3340     0.0870     0.9400 hn         1 JZL       0.243467
@<TRIPOS>BOND
     1     1     2 1   
     2     1    32 1   
     3     1    33 1   
     4     1    60 1   
     5     2     3 2   
     6     2     4 1   
     7     4     5 ar  
     8     4    31 ar  
     9     5     6 ar  
    10     5    34 1   
    11     6     7 1   
    12     6     8 ar  
    13     7    35 1   
    14     7    36 1   
    15     8     9 1   
    16     8    30 ar  
    17     9    10 1   
    18     9    19 1   
    19    10    11 1   
    20    10    37 1   
    21    10    38 1   
    22    11    12 1   
    23    11    17 1   
    24    11    39 1   
    25    12    13 1   
    26    12    40 1   
    27    12    41 1   
    28    13    14 1   
    29    13    42 1   
    30    13    43 1   
    31    14    15 1   
    32    14    44 1   
    33    14    45 1   
    34    15    16 1   
    35    15    46 1   
    36    15    47 1   
    37    16    17 1   
    38    16    48 1   
    39    16    49 1   
    40    17    18 1   
    41    17    50 1   
    42    18    51 1   
    43    19    20 1   
    44    19    29 2   
    45    20    21 1   
    46    20    52 1   
    47    21    22 1   
    48    21    53 1   
    49    21    54 1   
    50    22    23 ar  
    51    22    27 ar  
    52    23    24 ar  
    53    23    55 1   
    54    24    25 ar  
    55    24    56 1   
    56    25    26 ar  
    57    25    57 1   
    58    26    27 ar  
    59    26    58 1   
    60    27    28 1   
    61    29    30 1   
    62    30    31 ar  
    63    31    59 1   
@<TRIPOS>SUBSTRUCTURE
     1 JZL         1 TEMP              0 ****  ****    0 ROOT
