@<TRIPOS>MOLECULE
molecule
   31    33     1     0     0
SMALL
bcc


@<TRIPOS>ATOM
      1 C1           0.0000     0.0000     0.0000 ca         1 JZM       0.479600
      2 C2           1.4150     0.0000     0.0000 ca         1 JZM      -0.296600
      3 C3           2.0880     0.0000     1.2440 ca         1 JZM       0.746200
      4 N4           1.3610     0.0000     2.3520 nb         1 JZM      -0.797000
      5 C5           0.0320    -0.0000     2.3090 ca         1 JZM       0.956900
      6 N6          -0.6450     0.0000     1.1770 nb         1 JZM      -0.758000
      7 N7           3.4660    -0.0000     1.3020 nv         1 JZM      -1.038500
      8 C8          -0.6900    -0.0050    -1.2190 ca         1 JZM      -0.192300
      9 C9           0.0060    -0.0110    -2.3950 ca         1 JZM      -0.085000
     10 C12          1.3940    -0.0110    -2.4070 ca         1 JZM      -0.162000
     11 C13          2.1110     0.0000    -1.2230 ca         1 JZM       0.063900
     12 N14         -0.6700    -0.0010     3.5020 nv         1 JZM      -1.061500
     13 S20          3.8720     0.0010    -1.2470 ss         1 JZM      -0.169800
     14 C22          4.2460     0.1520    -2.9630 ca         1 JZM      -0.047100
     15 C23          4.3400     1.4090    -3.5460 ca         1 JZM      -0.069000
     16 C24          4.6330     1.5240    -4.8910 ca         1 JZM      -0.138000
     17 C25          4.8300     0.3890    -5.6570 ca         1 JZM       0.053400
     18 Cl25         5.1970     0.5380    -7.3480 cl         1 JZM      -0.101400
     19 C26          4.7360    -0.8650    -5.0790 ca         1 JZM      -0.138000
     20 C27          4.4500    -0.9860    -3.7330 ca         1 JZM      -0.069000
     21 HN7          3.9830    -0.7640     0.9140 hn         1 JZM       0.451300
     22 HN7A         3.9460     0.7360     1.7810 hn         1 JZM       0.451300
     23 H8          -1.7730    -0.0060    -1.2300 ha         1 JZM       0.153000
     24 H9          -0.5350    -0.0200    -3.3330 ha         1 JZM       0.136000
     25 H12          1.9210    -0.0160    -3.3540 ha         1 JZM       0.142000
     26 HN14        -0.9680    -0.8660     3.9060 hn         1 JZM       0.443800
     27 HN1A        -0.8930     0.8650     3.9510 hn         1 JZM       0.443800
     28 H23          4.1860     2.2990    -2.9470 ha         1 JZM       0.151000
     29 H24          4.7070     2.5040    -5.3470 ha         1 JZM       0.149500
     30 H26          4.8930    -1.7510    -5.6800 ha         1 JZM       0.149500
     31 H27          4.3760    -1.9680    -3.2810 ha         1 JZM       0.151000
@<TRIPOS>BOND
     1     1     2 ar
     2     1     6 ar
     3     1     8 ar
     4     2     3 ar
     5     2    11 ar
     6     3     4 ar
     7     3     7 1
     8     4     5 ar
     9     5     6 ar
    10     5    12 1
    11     8     9 ar
    12     9    10 ar
    13    10    11 ar
    14    11    13 1
    15    13    14 1
    16    14    15 ar
    17    14    20 ar
    18    15    16 ar
    19    16    17 ar
    20    17    18 1
    21    17    19 ar
    22    19    20 ar
    23     7    21 1
    24     7    22 1
    25     8    23 1
    26     9    24 1
    27    10    25 1
    28    12    26 1
    29    12    27 1
    30    15    28 1
    31    16    29 1
    32    19    30 1
    33    20    31 1
@<TRIPOS>SUBSTRUCTURE
     1 JZM         1 TEMP              0 ****  ****    0 ROOT
