@<TRIPOS>MOLECULE
JZN
   85    89     1     0     0
SMALL
bcc


@<TRIPOS>ATOM
      1 C1           0.0000     0.0000     0.0000 c3         1 JZN       0.242700
      2 F1           3.9180     0.0010     4.8800 f          1 JZN      -0.130900
      3 N1           7.8700    -3.3120     0.6980 nu         1 JZN      -0.444600
      4 O1           1.4290     0.0000     0.0000 os         1 JZN      -0.302900
      5 C2           2.0470     0.0000     1.2110 ca         1 JZN       0.194100
      6 F2           5.5780    -3.7140     1.6160 f          1 JZN      -0.197633
      7 N2          10.8150    -6.8850     1.1430 na         1 JZN       0.576800
      8 O2           5.6800    -2.3070    -0.8120 oh         1 JZN      -0.550800
      9 C3           1.2930     0.0000     2.3740 ca         1 JZN      -0.198000
     10 F3           3.9110    -2.1720     1.3700 f          1 JZN      -0.197633
     11 N3           9.4960    -7.3130     0.9460 nc         1 JZN      -0.684100
     12 O3          13.7850   -11.6680     3.1540 o          1 JZN      -0.673100
     13 C4           1.9220     0.0000     3.6050 ca         1 JZN      -0.131000
     14 F4           5.6570    -1.7510     2.7820 f          1 JZN      -0.197633
     15 N4          11.5770   -11.4610     3.2710 n          1 JZN      -0.152800
     16 C5           3.3040     0.0000     3.6760 ca         1 JZN       0.085900
     17 C6           4.0580     0.0000     2.5160 ca         1 JZN      -0.173000
     18 C7           3.4320    -0.0060     1.2830 ca         1 JZN      -0.081300
     19 C8           4.2530    -0.0130     0.0200 c3         1 JZN       0.017300
     20 C9           3.7940    -1.1610    -0.8800 c3         1 JZN      -0.038100
     21 C10          4.0700     1.3170    -0.7150 c3         1 JZN      -0.038100
     22 C11          5.7300    -0.2010     0.3740 c3         1 JZN      -0.070400
     23 C12          6.0570    -1.6950     0.4240 c3         1 JZN       0.103800
     24 C13          7.5590    -1.8810     0.6480 c3         1 JZN       0.125800
     25 C14          9.1860    -3.7320     0.8940 ca         1 JZN       0.159600
     26 C15         10.1970    -2.8030     1.0440 ca         1 JZN      -0.247000
     27 C16         11.5070    -3.2150     1.2410 ca         1 JZN       0.027700
     28 C17         12.5970    -2.1860     1.4020 c3         1 JZN       0.054200
     29 C18         11.8230    -4.5540     1.2910 ca         1 JZN      -0.203000
     30 C19         10.8220    -5.5120     1.1420 ca         1 JZN      -0.125200
     31 C20          8.7110    -6.2800     0.8290 cd         1 JZN       0.480800
     32 C21          9.4900    -5.1050     0.9420 ca         1 JZN      -0.330900
     33 C22         11.9300    -7.7130     1.3160 ca         1 JZN      -0.099200
     34 C23         13.1650    -7.3320     0.8020 ca         1 JZN      -0.088000
     35 C24         14.2700    -8.1470     0.9700 ca         1 JZN      -0.083000
     36 C25         14.1550    -9.3430     1.6490 ca         1 JZN      -0.037000
     37 C26         12.9190    -9.7350     2.1680 ca         1 JZN      -0.155600
     38 C27         11.8060    -8.9110     2.0040 ca         1 JZN      -0.156000
     39 C28         12.7930   -11.0160     2.8950 c          1 JZN       0.662700
     40 C29         10.3170   -10.7160     3.1450 c3         1 JZN       0.021000
     41 C30          9.1980   -11.6070     3.7250 c3         1 JZN      -0.018400
     42 C31          9.9730   -12.5710     4.6620 c3         1 JZN      -0.034400
     43 C32         11.2910   -12.7760     3.8700 c3         1 JZN      -0.029300
     44 C33         12.4050   -13.1800     4.8030 c          1 JZN       0.285100
     45 C34          5.2850    -2.3470     1.5730 c3         1 JZN       0.589900
     46 H1          -0.3610    -0.0130    -1.0210 h1         1 JZN      -0.001633
     47 H1A         -0.3610     0.8910     0.4990 h1         1 JZN      -0.001633
     48 H1B         -0.3610    -0.8780     0.5220 h1         1 JZN      -0.001633
     49 HN1          7.1470    -3.9870     0.5480 hn         1 JZN       0.325800
     50 HO2          6.4080    -2.2780    -1.4110 ho         1 JZN       0.399000
     51 H3           0.3100     0.0770     2.8250 ha         1 JZN       0.151000
     52 H4           1.3220     0.0680     4.5040 ha         1 JZN       0.118000
     53 HN5         13.1100   -14.9280     4.3900 hn         1 JZN       0.243800
     54 HN5A        11.6940   -14.9270     5.2060 hn         1 JZN       0.243800
     55 H6           5.1380     0.0660     2.5730 ha         1 JZN       0.151000
     56 H9           4.4900    -1.2760    -1.7020 hc         1 JZN       0.027367
     57 H9A          3.7590    -2.0790    -0.3050 hc         1 JZN       0.027367
     58 H9B          2.8070    -0.9420    -1.2700 hc         1 JZN       0.027367
     59 H10          3.0690     1.3670    -1.1270 hc         1 JZN       0.027367
     60 H10A         4.2160     2.1360    -0.0210 hc         1 JZN       0.027367
     61 H10B         4.7940     1.3890    -1.5170 hc         1 JZN       0.027367
     62 H11          5.9300     0.2450     1.3410 hc         1 JZN       0.048700
     63 H11A         6.3460     0.2780    -0.3780 hc         1 JZN       0.048700
     64 H13          7.8440    -1.4160     1.5840 h1         1 JZN       0.039200
     65 H13A         8.1050    -1.4200    -0.1660 h1         1 JZN       0.039200
     66 H15          9.9660    -1.7450     1.0020 ha         1 JZN       0.125000
     67 H17         12.1650    -1.2530     1.7410 hc         1 JZN       0.012700
     68 H17A        13.0910    -2.0310     0.4510 hc         1 JZN       0.012700
     69 H17B        13.3180    -2.5360     2.1310 hc         1 JZN       0.012700
     70 H18         12.8500    -4.8640     1.4450 ha         1 JZN       0.119000
     71 H20          7.6410    -6.3160     0.6690 h4         1 JZN       0.013800
     72 H23         13.2620    -6.3950     0.2680 ha         1 JZN       0.133000
     73 H24         15.2290    -7.8450     0.5680 ha         1 JZN       0.118000
     74 H25         15.0220    -9.9790     1.7760 ha         1 JZN       0.127000
     75 H27         10.8450    -9.2100     2.4050 ha         1 JZN       0.165000
     76 H29         10.3780    -9.7910     3.7060 h1         1 JZN       0.061200
     77 H29A        10.1160   -10.5070     2.1010 h1         1 JZN       0.061200
     78 H30          8.7020   -12.1580     2.9360 hc         1 JZN       0.045200
     79 H30A         8.4910   -11.0120     4.2900 hc         1 JZN       0.045200
     80 H31          9.4410   -13.5080     4.7760 hc         1 JZN       0.035200
     81 H31A        10.1670   -12.1050     5.6200 hc         1 JZN       0.035200
     82 H32         11.1510   -13.5200     3.0940 h1         1 JZN       0.051700
     83 O4          13.1380   -12.3370     5.2730 o          1 JZN      -0.344100
     84 N5          12.5840   -14.4800     5.1140 nz         1 JZN       0.206600
     85 H53         13.0830   -14.5500     5.9790 hn         1 JZN       0.243800
@<TRIPOS>BOND
     1     1     4 1   
     2     1    46 1   
     3     1    47 1   
     4     1    48 1   
     5     2    16 1   
     6     3    24 1   
     7     3    25 1   
     8     3    49 1   
     9     4     5 1   
    10     5     9 ar  
    11     5    18 ar  
    12     6    45 1   
    13     7    11 1   
    14     7    30 1   
    15     7    33 1   
    16     8    23 1   
    17     8    50 1   
    18     9    13 ar  
    19     9    51 1   
    20    10    45 1   
    21    11    31 2   
    22    12    39 2   
    23    13    16 ar  
    24    13    52 1   
    25    14    45 1   
    26    15    39 1   
    27    15    40 1   
    28    15    43 1   
    29    16    17 ar  
    30    17    18 ar  
    31    17    55 1   
    32    18    19 1   
    33    19    20 1   
    34    19    21 1   
    35    19    22 1   
    36    20    56 1   
    37    20    57 1   
    38    20    58 1   
    39    21    59 1   
    40    21    60 1   
    41    21    61 1   
    42    22    23 1   
    43    22    62 1   
    44    22    63 1   
    45    23    24 1   
    46    23    45 1   
    47    24    64 1   
    48    24    65 1   
    49    25    26 ar  
    50    25    32 ar  
    51    26    27 ar  
    52    26    66 1   
    53    27    28 1   
    54    27    29 ar  
    55    28    67 1   
    56    28    68 1   
    57    28    69 1   
    58    29    30 ar  
    59    29    70 1   
    60    30    32 ar  
    61    31    32 1   
    62    31    71 1   
    63    33    34 ar  
    64    33    38 ar  
    65    34    35 ar  
    66    34    72 1   
    67    35    36 ar  
    68    35    73 1   
    69    36    37 ar  
    70    36    74 1   
    71    37    38 ar  
    72    37    39 1   
    73    38    75 1   
    74    40    41 1   
    75    40    76 1   
    76    40    77 1   
    77    41    42 1   
    78    41    78 1   
    79    41    79 1   
    80    42    43 1   
    81    42    80 1   
    82    42    81 1   
    83    43    44 1   
    84    43    82 1   
    85    44    83 2   
    86    44    84 1   
    87    53    84 1   
    88    54    84 1   
    89    84    85 1   
@<TRIPOS>SUBSTRUCTURE
     1 JZN         1 TEMP              0 ****  ****    0 ROOT
