@<TRIPOS>MOLECULE
molecule
   47    50     1     0     0
SMALL
bcc


@<TRIPOS>ATOM
      1 C1           0.0000     0.0000     0.0000 c3         1 JZO       0.128700
      2 O2           1.4290     0.0000     0.0000 os         1 JZO      -0.417600
      3 C3           2.0100     0.0000     1.3050 c3         1 JZO       0.186700
      4 C4           3.5130     0.0000     1.1870 ca         1 JZO      -0.091300
      5 C5           4.2010     1.1990     1.1330 ca         1 JZO      -0.108000
      6 C6           5.5800     1.2070     1.0250 ca         1 JZO      -0.135000
      7 C7           6.2780     0.0190     0.9690 ca         1 JZO      -0.109000
      8 C8           5.5890    -1.1940     1.0230 ca         1 JZO      -0.001800
      9 C9           4.1990    -1.1950     1.1380 ca         1 JZO      -0.088000
     10 C10          6.3330    -2.4730     0.9640 cc         1 JZO      -0.250400
     11 C11          7.2150    -2.9620     1.9140 cd         1 JZO       0.191800
     12 N12          7.6820    -4.1750     1.4730 na         1 JZO      -0.457400
     13 C13          8.6390    -5.0250     2.1890 c3         1 JZO       0.239100
     14 N14          7.1030    -4.4750     0.2370 n          1 JZO      -0.309200
     15 C15          7.3530    -5.6830    -0.5510 c3         1 JZO       0.118300
     16 C16          6.2710    -3.4710    -0.1070 c          1 JZO       0.708700
     17 O17          5.5980    -3.4050    -1.1200 o          1 JZO      -0.632500
     18 C18          7.5870    -2.2950     3.1760 ca         1 JZO      -0.033800
     19 C19          6.5830    -1.7830     4.0180 ca         1 JZO      -0.090000
     20 C20          6.9010    -1.1670     5.1840 ca         1 JZO      -0.156300
     21 C21          8.2480    -1.0320     5.5660 ca         1 JZO       0.305300
     22 N22          8.5790    -0.4260     6.7120 nb         1 JZO      -0.640000
     23 C23          9.8440    -0.3110     7.0480 ca         1 JZO       0.306900
     24 C24         10.8510    -0.8150     6.2220 ca         1 JZO       0.302900
     25 N25         10.5520    -1.4140     5.0910 nb         1 JZO      -0.640000
     26 C26          9.2710    -1.5430     4.7280 ca         1 JZO       0.294300
     27 C27          8.9240    -2.1830     3.5270 ca         1 JZO      -0.150300
     28 H1          -0.3610    -0.8610     0.5500 h1         1 JZO       0.028700
     29 H1A         -0.3610     0.9070     0.4700 h1         1 JZO       0.028700
     30 H1B         -0.3610    -0.0460    -1.0200 h1         1 JZO       0.028700
     31 H3           1.6900     0.8840     1.8430 h1         1 JZO       0.025200
     32 H3A          1.6900    -0.8850     1.8430 h1         1 JZO       0.025200
     33 H5           3.6570     2.1350     1.1760 ha         1 JZO       0.130000
     34 H6           6.1130     2.1490     0.9830 ha         1 JZO       0.129000
     35 H7           7.3570     0.0270     0.8820 ha         1 JZO       0.132000
     36 H9           3.6590    -2.1340     1.1800 ha         1 JZO       0.140000
     37 H13          8.4610    -6.0620     1.9340 h1         1 JZO       0.053367
     38 H13A         8.5150    -4.8890     3.2560 h1         1 JZO       0.053367
     39 H13B         9.6480    -4.7510     1.9050 h1         1 JZO       0.053367
     40 H15          6.8440    -5.6050    -1.5040 h1         1 JZO       0.053700
     41 H15A         6.9830    -6.5480    -0.0140 h1         1 JZO       0.053700
     42 H15B         8.4180    -5.7910    -0.7190 h1         1 JZO       0.053700
     43 H19          5.5420    -1.8900     3.7360 ha         1 JZO       0.156000
     44 H20          6.1160    -0.7780     5.8220 ha         1 JZO       0.157000
     45 H23         10.1090     0.1790     7.9770 h4         1 JZO       0.034100
     46 H24         11.8880    -0.7110     6.5150 h4         1 JZO       0.033100
     47 H27          9.6950    -2.4600     2.8180 ha         1 JZO       0.157000
@<TRIPOS>BOND
     1     1     2 1
     2     2     3 1
     3     3     4 1
     4     4     5 ar
     5     4     9 ar
     6     5     6 ar
     7     6     7 ar
     8     7     8 ar
     9     8     9 ar
    10     8    10 1
    11    10    11 2
    12    10    16 1
    13    11    12 1
    14    11    18 1
    15    12    13 1
    16    12    14 1
    17    14    15 1
    18    14    16 1
    19    16    17 2
    20    18    19 ar
    21    18    27 ar
    22    19    20 ar
    23    20    21 ar
    24    21    22 ar
    25    21    26 ar
    26    22    23 ar
    27    23    24 ar
    28    24    25 ar
    29    25    26 ar
    30    26    27 ar
    31     1    28 1
    32     1    29 1
    33     1    30 1
    34     3    31 1
    35     3    32 1
    36     5    33 1
    37     6    34 1
    38     7    35 1
    39     9    36 1
    40    13    37 1
    41    13    38 1
    42    13    39 1
    43    15    40 1
    44    15    41 1
    45    15    42 1
    46    19    43 1
    47    20    44 1
    48    23    45 1
    49    24    46 1
    50    27    47 1
@<TRIPOS>SUBSTRUCTURE
     1 JZO         1 TEMP              0 ****  ****    0 ROOT
