@<TRIPOS>MOLECULE
JZR
   42    42     1     0     0
SMALL
bcc


@<TRIPOS>ATOM
      1 C1         -0.0490   -0.1040    0.1130 c3        1 JZR      0.305900
      2 O1         -0.5250    0.0240   -1.2070 os        1 JZR     -0.426600
      3 C2          1.4910   -0.0690    0.0360 c3        1 JZR      0.087100
      4 O2          1.9930   -1.2930   -0.4710 oh        1 JZR     -0.605800
      5 C3          2.0620    0.0920    1.4510 c3        1 JZR      0.108100
      6 O3          3.4580    0.3320    1.4120 oh        1 JZR     -0.607800
      7 C4          1.4270    1.3220    2.1250 c3        1 JZR      0.118100
      8 O4          1.8280    1.4040    3.4810 oh        1 JZR     -0.595800
      9 C5         -0.1060    1.1850    2.1070 c3        1 JZR      0.148100
     10 O5         -0.5600    1.0570    0.7570 os        1 JZR     -0.433600
     11 C6         -0.7720    2.4450    2.6640 c3        1 JZR      0.135400
     12 O6         -2.0320    2.0490    3.1800 oh        1 JZR     -0.598800
     13 C1'        -1.9490   -0.1040   -1.3180 c3        1 JZR      0.135400
     14 C2'        -2.2710    0.0170   -2.7970 c3        1 JZR     -0.084400
     15 C3'        -3.7620   -0.1010   -3.0200 c3        1 JZR     -0.078400
     16 C4'        -4.1030    0.0190   -4.4900 c3        1 JZR     -0.078400
     17 C5'        -5.5950   -0.0960   -4.7200 c3        1 JZR     -0.080400
     18 C6'        -5.9400    0.0220   -6.1820 c3        1 JZR     -0.093100
     19 H1         -0.4240   -1.0380    0.6140 h2        1 JZR      0.053700
     20 H2          1.8180    0.7850   -0.6200 h1        1 JZR      0.076700
     21 HO2         1.6130   -1.4000   -1.3530 ho        1 JZR      0.425000
     22 H3          1.8570   -0.8350    2.0560 h1        1 JZR      0.064700
     23 HO3         3.8490   -0.3980    0.9120 ho        1 JZR      0.427000
     24 H4          1.7420    2.2530    1.5770 h1        1 JZR      0.062700
     25 HO4         2.7950    1.3720    3.4810 ho        1 JZR      0.425000
     26 H5         -0.4220    0.2850    2.7040 h1        1 JZR      0.076700
     27 H6         -0.1350    2.8600    3.4910 h1        1 JZR      0.048200
     28 H6A        -0.8990    3.2080    1.8510 h1        1 JZR      0.048200
     29 HO6        -2.4980    2.8600    3.4150 ho        1 JZR      0.403000
     30 H1'        -2.2620   -1.1030   -0.9140 h1        1 JZR      0.042200
     31 H1'A       -2.4420    0.7090   -0.7240 h1        1 JZR      0.042200
     32 H2'        -1.8980    1.0040   -3.1770 hc        1 JZR      0.053200
     33 H2'A       -1.7290   -0.7840   -3.3650 hc        1 JZR      0.053200
     34 H3'        -4.2950    0.7010   -2.4440 hc        1 JZR      0.041700
     35 H3'A       -4.1270   -1.0870   -2.6290 hc        1 JZR      0.041700
     36 H4'        -3.7380    1.0050   -4.8820 hc        1 JZR      0.041200
     37 H4'A       -3.5710   -0.7830   -5.0670 hc        1 JZR      0.041200
     38 H5'        -6.1250    0.7060   -4.1410 hc        1 JZR      0.039200
     39 H5'A       -5.9590   -1.0820   -4.3250 hc        1 JZR      0.039200
     40 H6'        -7.0430   -0.0650   -6.3290 hc        1 JZR      0.033033
     41 H6'A       -5.4410   -0.7840   -6.7720 hc        1 JZR      0.033033
     42 H6'B       -5.6070    1.0080   -6.5870 hc        1 JZR      0.033033
@<TRIPOS>BOND
     1    1    2 1   
     2    1    3 1   
     3    1   10 1   
     4    1   19 1   
     5    2   13 1   
     6    3    4 1   
     7    3    5 1   
     8    3   20 1   
     9    4   21 1   
    10    5    6 1   
    11    5    7 1   
    12    5   22 1   
    13    6   23 1   
    14    7    8 1   
    15    7    9 1   
    16    7   24 1   
    17    8   25 1   
    18    9   10 1   
    19    9   11 1   
    20    9   26 1   
    21   11   12 1   
    22   11   27 1   
    23   11   28 1   
    24   12   29 1   
    25   13   14 1   
    26   13   30 1   
    27   13   31 1   
    28   14   15 1   
    29   14   32 1   
    30   14   33 1   
    31   15   16 1   
    32   15   34 1   
    33   15   35 1   
    34   16   17 1   
    35   16   36 1   
    36   16   37 1   
    37   17   18 1   
    38   17   38 1   
    39   17   39 1   
    40   18   40 1   
    41   18   41 1   
    42   18   42 1   
@<TRIPOS>SUBSTRUCTURE
     1 JZR         1 TEMP              0 ****  ****    0 ROOT
