@<TRIPOS>MOLECULE
molecule
   42    42     1     0     0
SMALL
bcc


@<TRIPOS>ATOM
      1 C1           0.0000     0.0000     0.0000 c3         1 JZR       0.342900
      2 O1          -0.4770     0.0550    -1.3470 os         1 JZR      -0.403600
      3 C2           1.5310     0.0000     0.0000 c3         1 JZR       0.117100
      4 O2           2.0080    -1.1680    -0.6700 oh         1 JZR      -0.592800
      5 C3           2.0340     0.0000     1.4460 c3         1 JZR       0.113100
      6 O3           3.4610     0.0740     1.4570 oh         1 JZR      -0.604800
      7 C4           1.4530     1.2150     2.1770 c3         1 JZR       0.101100
      8 O4           1.8570     1.1870     3.5470 oh         1 JZR      -0.602800
      9 C5          -0.0750     1.1680     2.0930 c3         1 JZR       0.155100
     10 O5          -0.4740     1.1380     0.7210 os         1 JZR      -0.431600
     11 C6          -0.6620     2.4100     2.7680 c3         1 JZR       0.151400
     12 O6          -2.0860     2.3100     2.7940 oh         1 JZR      -0.599800
     13 C1'         -1.8970    -0.0530    -1.4650 c3         1 JZR       0.136400
     14 C2'         -2.2920     0.0180    -2.9410 c3         1 JZR      -0.081400
     15 C3'         -3.8120    -0.0980    -3.0680 c3         1 JZR      -0.080400
     16 C4'         -4.2080    -0.0270    -4.5440 c3         1 JZR      -0.080400
     17 C5'         -5.7280    -0.1430    -4.6700 c3         1 JZR      -0.084400
     18 C6'         -6.1230    -0.0710    -6.1470 c3         1 JZR      -0.092100
     19 H1          -0.3590    -0.9030     0.4780 h2         1 JZR       0.041700
     20 H2           1.8910     0.8870    -0.5070 h1         1 JZR       0.065700
     21 HO2          2.6790    -0.9250    -1.2870 ho         1 JZR       0.415000
     22 H3           1.7100    -0.9070     1.9410 h1         1 JZR       0.060700
     23 HO3          3.8110    -0.6760     1.9080 ho         1 JZR       0.415000
     24 H4           1.8120     2.1230     1.7070 h1         1 JZR       0.058700
     25 HO4          2.5420     1.8200     3.6860 ho         1 JZR       0.414000
     26 H5          -0.4350     0.2760     2.5910 h1         1 JZR       0.062700
     27 H6          -0.3720     3.2940     2.2130 h1         1 JZR       0.037200
     28 H6A         -0.2860     2.4810     3.7820 h1         1 JZR       0.037200
     29 HO6         -2.4350     2.9460     3.3970 ho         1 JZR       0.403000
     30 H1'         -2.2220    -0.9990    -1.0490 h1         1 JZR       0.036200
     31 H1'A        -2.3670     0.7600    -0.9250 h1         1 JZR       0.036200
     32 H2'         -1.9660     0.9640    -3.3570 hc         1 JZR       0.052700
     33 H2'A        -1.8210    -0.7950    -3.4810 hc         1 JZR       0.052700
     34 H3'         -4.1380    -1.0440    -2.6520 hc         1 JZR       0.042700
     35 H3'A        -4.2830     0.7150    -2.5280 hc         1 JZR       0.042700
     36 H4'         -3.8820     0.9190    -4.9600 hc         1 JZR       0.042700
     37 H4'A        -3.7370    -0.8400    -5.0840 hc         1 JZR       0.042700
     38 H5'         -6.0540    -1.0890    -4.2550 hc         1 JZR       0.040200
     39 H5'A        -6.1990     0.6690    -4.1300 hc         1 JZR       0.040200
     40 H6'         -7.2000    -0.1540    -6.2370 hc         1 JZR       0.032367
     41 H6'A        -5.7980     0.8750    -6.5620 hc         1 JZR       0.032367
     42 H6'B        -5.6520    -0.8830    -6.6870 hc         1 JZR       0.032367
@<TRIPOS>BOND
     1     1     2 1
     2     1     3 1
     3     1    10 1
     4     2    13 1
     5     3     4 1
     6     3     5 1
     7     5     6 1
     8     5     7 1
     9     7     8 1
    10     7     9 1
    11     9    10 1
    12     9    11 1
    13    11    12 1
    14    13    14 1
    15    14    15 1
    16    15    16 1
    17    16    17 1
    18    17    18 1
    19     1    19 1
    20     3    20 1
    21     4    21 1
    22     5    22 1
    23     6    23 1
    24     7    24 1
    25     8    25 1
    26     9    26 1
    27    11    27 1
    28    11    28 1
    29    12    29 1
    30    13    30 1
    31    13    31 1
    32    14    32 1
    33    14    33 1
    34    15    34 1
    35    15    35 1
    36    16    36 1
    37    16    37 1
    38    17    38 1
    39    17    39 1
    40    18    40 1
    41    18    41 1
    42    18    42 1
@<TRIPOS>SUBSTRUCTURE
     1 JZR         1 TEMP              0 ****  ****    0 ROOT
