@<TRIPOS>MOLECULE
molecule
   58    60     1     0     0
SMALL
bcc


@<TRIPOS>ATOM
      1 C1           0.0000     0.0000     0.0000 c3         1 JZS      -0.119100
      2 F1           3.8280     5.1870   -15.4710 f          1 JZS      -0.203800
      3 N1           2.0180     1.1960    -0.6920 ns         1 JZS      -0.592900
      4 O1           1.8580     0.2010    -2.6690 o          1 JZS      -0.584100
      5 C2           1.5300     0.0000     0.0000 c3         1 JZS       0.051700
      6 F2           4.3940     6.9210   -14.0980 f          1 JZS      -0.203800
      7 N2           3.3700     3.5440    -6.1590 na         1 JZS       0.128800
      8 O2           5.0330     4.3890   -13.0620 oh         1 JZS      -0.551800
      9 C3           2.1460     1.1940    -2.0320 c          1 JZS       0.690700
     10 F3           2.2060     6.3030   -14.3140 f          1 JZS      -0.203800
     11 N3           3.7560     2.4570    -6.9520 nc         1 JZS      -0.515100
     12 C4           2.6390     2.4020    -2.7300 ca         1 JZS      -0.159600
     13 F4           2.8820     2.7860   -12.2290 f          1 JZS      -0.203800
     14 C5           2.9720     3.5440    -2.0010 ca         1 JZS      -0.122000
     15 F5           3.0390     3.0260   -14.4960 f          1 JZS      -0.203800
     16 C6           3.4300     4.6710    -2.6540 ca         1 JZS      -0.101000
     17 F6           1.4150     4.1430   -13.3380 f          1 JZS      -0.203800
     18 C7           3.5630     4.6710    -4.0300 ca         1 JZS      -0.119000
     19 C8           3.2350     3.5380    -4.7640 ca         1 JZS       0.064800
     20 C9           2.7780     2.4010    -4.1180 ca         1 JZS      -0.065000
     21 C10          3.7800     2.8120    -8.2040 cd         1 JZS       0.414800
     22 C11          3.4040     4.1730    -8.2960 ca         1 JZS      -0.313900
     23 C12          3.2580     5.0660    -9.3720 ca         1 JZS       0.283600
     24 C13          3.3530     5.5770   -11.7940 c3         1 JZS       0.241800
     25 C14          3.6850     4.8620   -13.1050 c3         1 JZS       0.039800
     26 C15          3.5240     5.8390   -14.2720 c3         1 JZS       0.600400
     27 C16          2.7350     3.6790   -13.2970 c3         1 JZS       0.600400
     28 C17          2.8660     6.3700    -9.1290 ca         1 JZS      -0.257000
     29 C18          2.6170     6.7980    -7.8330 ca         1 JZS       0.022700
     30 C19          2.1900     8.2220    -7.5870 c3         1 JZS      -0.052800
     31 C20          2.7550     5.9350    -6.7680 ca         1 JZS      -0.226000
     32 C21          3.1540     4.6190    -6.9850 ca         1 JZS       0.030800
     33 C22          2.0330     0.0000     1.4200 c          1 JZS       0.473100
     34 H1          -0.3610     0.7960    -0.6400 hc         1 JZS       0.067700
     35 H1A         -0.3610     0.1570     1.0090 hc         1 JZS       0.067700
     36 H1B         -0.3610    -0.9520    -0.3690 hc         1 JZS       0.067700
     37 HN1          2.2640     2.0120    -0.1670 hn         1 JZS       0.344500
     38 H2           1.8910    -0.8850    -0.5110 h1         1 JZS       0.122700
     39 HO2          5.4070     4.4270   -13.9270 ho         1 JZS       0.436000
     40 HN4          3.8380     3.7120   -10.8450 hn         1 JZS       0.465800
     41 H5           2.6740     3.4320    -0.9650 ha         1 JZS       0.113000
     42 HN5          2.4720    -1.1900     2.8720 hn         1 JZS       0.481467
     43 HN5A         0.8980    -0.7590     2.7810 hn         1 JZS       0.481467
     44 H6           3.6880     5.5570    -2.0860 ha         1 JZS       0.148000
     45 H7           3.9230     5.5580    -4.5380 ha         1 JZS       0.163000
     46 H9           2.4420     1.5480    -4.6950 ha         1 JZS       0.179000
     47 H10          4.0430     2.1720    -9.0370 h4         1 JZS       0.063800
     48 H13          4.0260     6.4150   -11.6590 h1         1 JZS       0.077700
     49 H13A         2.3320     5.9360   -11.8260 h1         1 JZS       0.077700
     50 H17          2.7560     7.0620    -9.9550 ha         1 JZS       0.138000
     51 H19          1.8070     8.6480    -8.5070 hc         1 JZS       0.050033
     52 H19A         1.4140     8.2410    -6.8310 hc         1 JZS       0.050033
     53 H19B         3.0400     8.8010    -7.2470 hc         1 JZS       0.050033
     54 H20          2.5570     6.2820    -5.7610 ha         1 JZS       0.131000
     55 O3           2.7300     0.9100     1.8170 o          1 JZS      -0.398100
     56 N4           3.5070     4.6420   -10.6760 nu         1 JZS      -0.816600
     57 H53          1.4720    -1.8210     1.7130 hn         1 JZS       0.481467
     58 N5           1.7080    -1.0110     2.2500 nz         1 JZS      -0.683400
@<TRIPOS>BOND
     1     1     5 1
     2     2    26 1
     3     3     5 1
     4     3     9 1
     5     4     9 2
     6     5    33 1
     7     6    26 1
     8     7    11 1
     9     7    19 1
    10     7    32 1
    11     8    25 1
    12     9    12 1
    13    10    26 1
    14    11    21 2
    15    55    33 2
    16    12    14 ar
    17    12    20 ar
    18    13    27 1
    19    56    23 1
    20    56    24 1
    21    14    16 ar
    22    15    27 1
    23    58    33 1
    24    16    18 ar
    25    17    27 1
    26    18    19 ar
    27    19    20 ar
    28    21    22 1
    29    22    23 ar
    30    22    32 ar
    31    23    28 ar
    32    24    25 1
    33    25    26 1
    34    25    27 1
    35    28    29 ar
    36    29    30 1
    37    29    31 ar
    38    31    32 ar
    39     1    34 1
    40     1    35 1
    41     1    36 1
    42     3    37 1
    43     5    38 1
    44     8    39 1
    45    56    40 1
    46    14    41 1
    47    58    42 1
    48    58    43 1
    49    16    44 1
    50    18    45 1
    51    20    46 1
    52    21    47 1
    53    24    48 1
    54    24    49 1
    55    28    50 1
    56    30    51 1
    57    30    52 1
    58    30    53 1
    59    31    54 1
    60    57    58 1
@<TRIPOS>SUBSTRUCTURE
     1 JZS         1 TEMP              0 ****  ****    0 ROOT
