@<TRIPOS>MOLECULE
JZS
   58    60     1     0     0
SMALL
bcc


@<TRIPOS>ATOM
      1 C1           0.0000     0.0000     0.0000 c3         1 JZS      -0.015100
      2 F1           3.8280     5.1870   -15.4710 f          1 JZS      -0.188967
      3 N1           2.0180     1.1960    -0.6920 ns         1 JZS      -0.225900
      4 O1           1.8580     0.2010    -2.6690 o          1 JZS      -0.621100
      5 C2           1.5300     0.0000     0.0000 c3         1 JZS      -0.037300
      6 F2           4.3940     6.9210   -14.0980 f          1 JZS      -0.188967
      7 N2           3.3700     3.5440    -6.1590 na         1 JZS       0.574800
      8 O2           5.0330     4.3890   -13.0620 oh         1 JZS      -0.534800
      9 C3           2.1460     1.1940    -2.0320 c          1 JZS       0.622700
     10 F3           2.2060     6.3030   -14.3140 f          1 JZS      -0.188967
     11 N3           3.7560     2.4570    -6.9520 nc         1 JZS      -0.656100
     12 C4           2.6390     2.4020    -2.7300 ca         1 JZS      -0.178600
     13 F4           2.8820     2.7860   -12.2290 f          1 JZS      -0.188967
     14 C5           2.9720     3.5440    -2.0010 ca         1 JZS      -0.097000
     15 F5           3.0390     3.0260   -14.4960 f          1 JZS      -0.188967
     16 C6           3.4300     4.6710    -2.6540 ca         1 JZS      -0.067000
     17 F6           1.4150     4.1430   -13.3380 f          1 JZS      -0.188967
     18 C7           3.5630     4.6710    -4.0300 ca         1 JZS      -0.092000
     19 C8           3.2350     3.5380    -4.7640 ca         1 JZS      -0.104200
     20 C9           2.7780     2.4010    -4.1180 ca         1 JZS      -0.023000
     21 C10          3.7800     2.8120    -8.2040 cd         1 JZS       0.476800
     22 C11          3.4040     4.1730    -8.2960 ca         1 JZS      -0.326900
     23 C12          3.2580     5.0660    -9.3720 ca         1 JZS       0.159600
     24 C13          3.3530     5.5770   -11.7940 c3         1 JZS       0.161800
     25 C14          3.6850     4.8620   -13.1050 c3         1 JZS       0.037800
     26 C15          3.5240     5.8390   -14.2720 c3         1 JZS       0.562900
     27 C16          2.7350     3.6790   -13.2970 c3         1 JZS       0.562900
     28 C17          2.8660     6.3700    -9.1290 ca         1 JZS      -0.246000
     29 C18          2.6170     6.7980    -7.8330 ca         1 JZS       0.024700
     30 C19          2.1900     8.2220    -7.5870 c3         1 JZS       0.054200
     31 C20          2.7550     5.9350    -6.7680 ca         1 JZS      -0.203000
     32 C21          3.1540     4.6190    -6.9850 ca         1 JZS      -0.128200
     33 C22          2.0330     0.0000     1.4200 c          1 JZS       0.310100
     34 H1          -0.3610     0.7960    -0.6400 hc         1 JZS       0.029367
     35 H1A         -0.3610     0.1570     1.0090 hc         1 JZS       0.029367
     36 H1B         -0.3610    -0.9520    -0.3690 hc         1 JZS       0.029367
     37 HN1          2.2640     2.0120    -0.1670 hn         1 JZS       0.213500
     38 H2           1.8910    -0.8850    -0.5110 h1         1 JZS       0.090700
     39 HO2          5.4070     4.4270   -13.9270 ho         1 JZS       0.423000
     40 HN4          3.8380     3.7120   -10.8450 hn         1 JZS       0.325800
     41 H5           2.6740     3.4320    -0.9650 ha         1 JZS       0.090000
     42 HN5          2.4720    -1.1900     2.8720 hn         1 JZS       0.250467
     43 HN5A         0.8980    -0.7590     2.7810 hn         1 JZS       0.250467
     44 H6           3.6880     5.5570    -2.0860 ha         1 JZS       0.114000
     45 H7           3.9230     5.5580    -4.5380 ha         1 JZS       0.135000
     46 H9           2.4420     1.5480    -4.6950 ha         1 JZS       0.148000
     47 H10          4.0430     2.1720    -9.0370 h4         1 JZS       0.013800
     48 H13          4.0260     6.4150   -11.6590 h1         1 JZS       0.050200
     49 H13A         2.3320     5.9360   -11.8260 h1         1 JZS       0.050200
     50 H17          2.7560     7.0620    -9.9550 ha         1 JZS       0.124000
     51 H19          1.8070     8.6480    -8.5070 hc         1 JZS       0.012033
     52 H19A         1.4140     8.2410    -6.8310 hc         1 JZS       0.012033
     53 H19B         3.0400     8.8010    -7.2470 hc         1 JZS       0.012033
     54 H20          2.5570     6.2820    -5.7610 ha         1 JZS       0.115000
     55 O3           2.7300     0.9100     1.8170 o          1 JZS      -0.401100
     56 N4           3.5070     4.6420   -10.6760 nu         1 JZS      -0.428600
     57 H53          1.4720    -1.8210     1.7130 hn         1 JZS       0.250467
     58 N5           1.7080    -1.0110     2.2500 nz         1 JZS       0.200600
@<TRIPOS>BOND
     1     1     5 1   
     2     1    34 1   
     3     1    35 1   
     4     1    36 1   
     5     2    26 1   
     6     3     5 1   
     7     3     9 1   
     8     3    37 1   
     9     4     9 2   
    10     5    33 1   
    11     5    38 1   
    12     6    26 1   
    13     7    11 1   
    14     7    19 1   
    15     7    32 1   
    16     8    25 1   
    17     8    39 1   
    18     9    12 1   
    19    10    26 1   
    20    11    21 2   
    21    12    14 ar  
    22    12    20 ar  
    23    13    27 1   
    24    14    16 ar  
    25    14    41 1   
    26    15    27 1   
    27    16    18 ar  
    28    16    44 1   
    29    17    27 1   
    30    18    19 ar  
    31    18    45 1   
    32    19    20 ar  
    33    20    46 1   
    34    21    22 1   
    35    21    47 1   
    36    22    23 ar  
    37    22    32 ar  
    38    23    28 ar  
    39    23    56 1   
    40    24    25 1   
    41    24    48 1   
    42    24    49 1   
    43    24    56 1   
    44    25    26 1   
    45    25    27 1   
    46    28    29 ar  
    47    28    50 1   
    48    29    30 1   
    49    29    31 ar  
    50    30    51 1   
    51    30    52 1   
    52    30    53 1   
    53    31    32 ar  
    54    31    54 1   
    55    33    55 2   
    56    33    58 1   
    57    40    56 1   
    58    42    58 1   
    59    43    58 1   
    60    57    58 1   
@<TRIPOS>SUBSTRUCTURE
     1 JZS         1 TEMP              0 ****  ****    0 ROOT
