@<TRIPOS>MOLECULE
molecule
   39    41     1     0     0
SMALL
bcc


@<TRIPOS>ATOM
      1 S            0.0000     0.0000     0.0000 s6         1 JZU       1.355800
      2 N1           0.0220    -9.2530    -5.5640 nb         1 JZU      -0.761000
      3 C2          -0.9190    -9.1890    -4.6410 ca         1 JZU       0.719900
      4 N3          -1.0210    -8.1780    -3.8030 nb         1 JZU      -0.748000
      5 C4          -0.1610    -7.1650    -3.8570 ca         1 JZU       0.455800
      6 C5           0.8600    -7.1860    -4.8220 ca         1 JZU      -0.165200
      7 C6           0.9260    -8.2870    -5.6950 ca         1 JZU       0.789200
      8 N6           1.9100    -8.3630    -6.6640 nv         1 JZU      -1.072500
      9 N7           1.5840    -6.0530    -4.6620 nc         1 JZU      -0.557100
     10 C8           1.0850    -5.3550    -3.6850 cd         1 JZU       0.415700
     11 N9           0.0070    -5.9980    -3.1550 na         1 JZU      -0.267000
     12 C1'         -0.8230    -5.5310    -2.0410 c3         1 JZU       0.271800
     13 N18          1.6570     0.0000     0.0000 nz         1 JZU      -0.818500
     14 C2'         -0.3360    -6.1460    -0.7040 c3         1 JZU       0.100100
     15 O2'         -0.9350    -7.4240    -0.4830 oh         1 JZU      -0.540800
     16 O2S         -0.4010     0.0000     1.3640 o          1 JZU      -0.518300
     17 C3'         -0.8420    -5.1120     0.3310 c3         1 JZU       0.090100
     18 O3'         -2.0760    -5.5450     0.9080 oh         1 JZU      -0.554800
     19 O3S         -0.4020     0.9990    -0.9280 o          1 JZU      -0.518300
     20 C4'         -1.0540    -3.8260    -0.4910 c3         1 JZU       0.119100
     21 O4'         -0.6510    -4.1120    -1.8410 os         1 JZU      -0.434600
     22 C5'         -0.1950    -2.6960     0.0800 c3         1 JZU       0.210800
     23 N5'         -0.4900    -1.4500    -0.6310 n7         1 JZU      -0.886100
     24 HN6          2.7800    -8.8140    -6.4600 hn         1 JZU       0.450300
     25 HN6A         1.7410    -7.9910    -7.5780 hn         1 JZU       0.450300
     26 H1'         -1.8670    -5.7670    -2.2090 h2         1 JZU       0.127700
     27 HN18         1.9900     0.9130     0.2380 hn         1 JZU       0.494467
     28 HN1A         1.9900    -0.6620     0.6720 hn         1 JZU       0.494467
     29 H2'          0.7450    -6.2100    -0.6830 h1         1 JZU       0.059700
     30 HO2'        -0.3420    -7.9690     0.0070 ho         1 JZU       0.416000
     31 H3'         -0.0950    -4.9500     1.0990 h1         1 JZU       0.041700
     32 HO3'        -2.0040    -5.5380     1.8480 ho         1 JZU       0.416000
     33 H4'         -2.1000    -3.5460    -0.4720 h1         1 JZU       0.102700
     34 H5'         -0.4160    -2.5720     1.1340 h1         1 JZU       0.057200
     35 H5'A         0.8530    -2.9420    -0.0420 h1         1 JZU       0.057200
     36 HN5'        -1.0130    -1.4740    -1.4840 hn         1 JZU       0.508800
     37 H2          -1.6360    -9.9980    -4.5710 h5         1 JZU       0.073100
     38 H183         1.9900    -0.2550    -0.9080 hn         1 JZU       0.494467
     39 H8           1.4700    -4.4020    -3.3430 h5         1 JZU       0.066800
@<TRIPOS>BOND
     1     1    13 1
     2     1    16 2
     3     1    19 2
     4     1    23 1
     5     2     3 ar
     6     2     7 ar
     7     3     4 ar
     8     4     5 ar
     9     5     6 ar
    10     5    11 1
    11     6     7 ar
    12     6     9 1
    13     7     8 1
    14     9    10 2
    15    10    11 1
    16    11    12 1
    17    12    14 1
    18    12    21 1
    19    14    15 1
    20    14    17 1
    21    17    18 1
    22    17    20 1
    23    20    21 1
    24    20    22 1
    25    22    23 1
    26     3    37 1
    27     8    24 1
    28     8    25 1
    29    10    39 1
    30    12    26 1
    31    13    27 1
    32    13    28 1
    33    14    29 1
    34    15    30 1
    35    17    31 1
    36    18    32 1
    37    20    33 1
    38    22    34 1
    39    22    35 1
    40    23    36 1
    41    38    13 1
@<TRIPOS>SUBSTRUCTURE
     1 JZU         1 TEMP              0 ****  ****    0 ROOT
