@<TRIPOS>MOLECULE
JZV
   48    49     1     0     0
SMALL
bcc


@<TRIPOS>ATOM
      1 CAA          0.0000     0.0000     0.0000 ca         1 JZV      -0.083000
      2 CAB          1.3830     0.0000     0.0000 ca         1 JZV      -0.107000
      3 CAC          2.0750     0.0000     1.1940 ca         1 JZV      -0.062000
      4 NAD          2.8440     1.0240     4.0180 n2         1 JZV      -0.329200
      5 OAE          2.9750     2.1180     3.1290 os         1 JZV      -0.184300
      6 CAF          3.8040     3.1730     3.6230 c3         1 JZV       0.265700
      7 CAG         -0.6980    -0.0010     1.1940 ca         1 JZV      -0.100000
      8 CAH         -0.0170    -0.0000     2.3940 ca         1 JZV      -0.059300
      9 CAI          1.3770    -0.0000     2.4010 ca         1 JZV      -0.143900
     10 CAJ          2.1160    -0.0010     3.6870 ce         1 JZV       0.369900
     11 CAK          2.0230    -1.1690     4.5920 c          1 JZV       0.627800
     12 OAL          2.6060    -1.1260     5.8060 os         1 JZV      -0.396900
     13 CAM          2.4740    -2.3070     6.6410 c3         1 JZV       0.266700
     14 OAN          1.4220    -2.1630     4.2410 o          1 JZV      -0.570000
     15 FAO         -9.0440    -0.1570     1.5640 f          1 JZV      -0.207967
     16 CAP         -0.7780    -0.0000     3.6940 c3         1 JZV       0.263700
     17 OAQ         -2.1760     0.1260     3.4280 os         1 JZV      -0.195300
     18 NAR         -2.9850     0.1490     4.5900 n2         1 JZV      -0.395200
     19 CAS         -4.2740     0.1560     4.4820 ce         1 JZV       0.406900
     20 CAT         -4.9020     0.2770     3.1510 ca         1 JZV      -0.166900
     21 CAU         -6.0930    -0.3980     2.8750 ca         1 JZV      -0.025000
     22 CAV         -6.6730    -0.2820     1.6290 ca         1 JZV      -0.214300
     23 CAW         -7.9590    -1.0100     1.3290 c3         1 JZV       0.640200
     24 FAX         -8.0620    -2.1350     2.1550 f          1 JZV      -0.207967
     25 CAY         -5.1340     0.0450     5.7140 c3         1 JZV      -0.014400
     26 CAZ         -4.3100     1.0680     2.1650 ca         1 JZV      -0.046000
     27 CBA         -4.9020     1.1750     0.9230 ca         1 JZV      -0.111000
     28 CBB         -6.0800     0.5000     0.6550 ca         1 JZV      -0.034000
     29 FBC         -7.9650    -1.4140    -0.0100 f          1 JZV      -0.207967
     30 HAA         -0.5390    -0.0000    -0.9400 ha         1 JZV       0.102000
     31 HAB          1.9240     0.0010    -0.9390 ha         1 JZV       0.105000
     32 HAC          3.1580     0.0000     1.1930 ha         1 JZV       0.109000
     33 HAF          3.3870     3.5580     4.5460 h1         1 JZV      -0.001300
     34 HAFA         4.8010     2.7920     3.8080 h1         1 JZV      -0.001300
     35 HAFB         3.8520     3.9680     2.8890 h1         1 JZV      -0.001300
     36 HAG         -1.7810    -0.0010     1.1880 ha         1 JZV       0.120000
     37 HAM          3.0210    -2.1590     7.5650 h1         1 JZV       0.002700
     38 HAMA         2.8760    -3.1670     6.1180 h1         1 JZV       0.002700
     39 HAMB         1.4280    -2.4770     6.8640 h1         1 JZV       0.002700
     40 HAP         -0.4500     0.8320     4.3050 h1         1 JZV       0.021200
     41 HAPA        -0.5930    -0.9290     4.2210 h1         1 JZV       0.021200
     42 HAU         -6.5130    -1.0760     3.6080 ha         1 JZV       0.124000
     43 HAY         -4.5740     0.3820     6.5770 hc         1 JZV       0.018367
     44 HAYA        -6.0180     0.6600     5.5940 hc         1 JZV       0.018367
     45 HAYB        -5.4300    -0.9880     5.8550 hc         1 JZV       0.018367
     46 HAZ         -3.3880     1.5970     2.3750 ha         1 JZV       0.129000
     47 HBA         -4.4440     1.7880     0.1570 ha         1 JZV       0.112000
     48 HBB         -6.5410     0.5870    -0.3210 ha         1 JZV       0.116000
@<TRIPOS>BOND
     1     1     2 ar  
     2     1     7 ar  
     3     1    30 1   
     4     2     3 ar  
     5     2    31 1   
     6     3     9 ar  
     7     3    32 1   
     8     4     5 1   
     9     4    10 2   
    10     5     6 1   
    11     6    33 1   
    12     6    34 1   
    13     6    35 1   
    14     7     8 ar  
    15     7    36 1   
    16     8     9 ar  
    17     8    16 1   
    18     9    10 1   
    19    10    11 1   
    20    11    12 1   
    21    11    14 2   
    22    12    13 1   
    23    13    37 1   
    24    13    38 1   
    25    13    39 1   
    26    15    23 1   
    27    16    17 1   
    28    16    40 1   
    29    16    41 1   
    30    17    18 1   
    31    18    19 2   
    32    19    20 1   
    33    19    25 1   
    34    20    21 ar  
    35    20    26 ar  
    36    21    22 ar  
    37    21    42 1   
    38    22    23 1   
    39    22    28 ar  
    40    23    24 1   
    41    23    29 1   
    42    25    43 1   
    43    25    44 1   
    44    25    45 1   
    45    26    27 ar  
    46    26    46 1   
    47    27    28 ar  
    48    27    47 1   
    49    28    48 1   
@<TRIPOS>SUBSTRUCTURE
     1 JZV         1 TEMP              0 ****  ****    0 ROOT
