@<TRIPOS>MOLECULE
JZW
   63    67     1     0     0
SMALL
bcc


@<TRIPOS>ATOM
      1 C1           0.0000     0.0000     0.0000 cc         1 JZW      -0.206800
      2 N1          -1.9230    -0.0010     1.5880 nb         1 JZW      -0.612000
      3 O1           1.9700    -1.0420     6.9980 os         1 JZW      -0.409600
      4 S1           1.9460     0.0000     1.6420 ss         1 JZW      -0.178500
      5 C2           1.3230     0.0000     0.0000 cd         1 JZW       0.021400
      6 N2          -1.4520    -0.0010     3.8580 nb         1 JZW      -0.667000
      7 O2           5.9330     4.6790    -1.5540 o          1 JZW      -0.586800
      8 S2           5.1850     4.6170    -2.7610 s6         1 JZW       0.966900
      9 C3          -0.6110    -0.0010     1.2650 ca         1 JZW       0.465100
     10 N3           0.7490    -0.0010     4.6930 nh         1 JZW      -0.453300
     11 O3           5.7300     4.0270    -3.9320 o          1 JZW      -0.586800
     12 C4           0.3190    -0.0000     2.3070 ca         1 JZW      -0.255700
     13 N4           2.4580     1.3850    -1.6430 n3         1 JZW      -0.538600
     14 O4          -7.3660     1.3450     0.9070 oh         1 JZW      -0.587800
     15 C5          -2.3130    -0.0010     2.8460 cp         1 JZW       0.697500
     16 N5           3.8870     3.6580    -2.3870 n3         1 JZW      -0.552500
     17 C6          -0.1450    -0.0010     3.6340 ca         1 JZW       0.578200
     18 C7          -3.7660    -0.0010     3.1440 cp         1 JZW      -0.174500
     19 C8           0.0420    -0.0020     5.9810 c3         1 JZW       0.088800
     20 C9           1.0640     0.0590     7.1190 c3         1 JZW       0.213400
     21 C10          2.6770    -1.0710     5.7560 c3         1 JZW       0.213400
     22 C11          1.6700    -1.1440     4.6040 c3         1 JZW       0.088800
     23 C12          2.1800    -0.0010    -1.2400 c3         1 JZW       0.243000
     24 C13          3.0840     1.4310    -2.9700 c3         1 JZW       0.126800
     25 C14          3.1910     2.8890    -3.4310 c3         1 JZW       0.239300
     26 C15          3.3990     3.5540    -1.0030 c3         1 JZW       0.239300
     27 C16          3.2830     2.0700    -0.6390 c3         1 JZW       0.126800
     28 C17          4.4580     6.2340    -3.1410 c3         1 JZW       0.013700
     29 C18         -4.2100    -0.0010     4.4650 ca         1 JZW      -0.055000
     30 C19         -5.5630    -0.0010     4.7370 ca         1 JZW      -0.122000
     31 C20         -6.4780    -0.0010     3.7000 ca         1 JZW      -0.059000
     32 C21         -6.0450    -0.0010     2.3860 ca         1 JZW      -0.123300
     33 C22         -4.6950     0.0050     2.1030 ca         1 JZW      -0.034000
     34 C23         -7.0480    -0.0020     1.2620 c3         1 JZW       0.286700
     35 H1          -0.5760     0.0000    -0.9180 ha         1 JZW       0.137000
     36 HO4         -7.9950     1.3450     0.2030 ho         1 JZW       0.387000
     37 H8          -0.6090     0.8620     6.0350 h1         1 JZW       0.038200
     38 H8A         -0.5440    -0.9090     6.0700 h1         1 JZW       0.038200
     39 H9           0.5490    -0.0000     8.0700 h1         1 JZW       0.015950
     40 H9A          1.6170     0.9890     7.0580 h1         1 JZW       0.015950
     41 H10          3.2720    -0.1720     5.6580 h1         1 JZW       0.015950
     42 H10A         3.3200    -1.9430     5.7280 h1         1 JZW       0.015950
     43 H11          2.2000    -1.1070     3.6590 h1         1 JZW       0.038200
     44 H11A         1.1070    -2.0670     4.6740 h1         1 JZW       0.038200
     45 H12          3.1130    -0.5110    -1.0340 h1         1 JZW       0.020200
     46 H12A         1.6570    -0.5110    -2.0400 h1         1 JZW       0.020200
     47 H13          2.4770     0.8750    -3.6740 h1         1 JZW       0.023200
     48 H13A         4.0740     0.9960    -2.9170 h1         1 JZW       0.023200
     49 H14          2.1990     3.2970    -3.5820 h1         1 JZW       0.027450
     50 H14A         3.7550     2.9380    -4.3540 h1         1 JZW       0.027450
     51 H15          4.0990     4.0390    -0.3340 h1         1 JZW       0.027450
     52 H15A         2.4260     4.0240    -0.9250 h1         1 JZW       0.027450
     53 H16          4.2710     1.6250    -0.6210 h1         1 JZW       0.023200
     54 H16A         2.8200     1.9730     0.3350 h1         1 JZW       0.023200
     55 H17          3.7750     6.1360    -3.9760 h1         1 JZW       0.061033
     56 H17A         5.2450     6.9320    -3.3990 h1         1 JZW       0.061033
     57 H17B         3.9190     6.6010    -2.2760 h1         1 JZW       0.061033
     58 H18         -3.4930    -0.0010     5.2770 ha         1 JZW       0.119000
     59 H19         -5.9090    -0.0010     5.7630 ha         1 JZW       0.105000
     60 H20         -7.5400    -0.0030     3.9170 ha         1 JZW       0.104000
     61 H22         -4.3560     0.0040     1.0740 ha         1 JZW       0.127000
     62 H23         -7.9480    -0.5130     1.5820 h1         1 JZW      -0.013800
     63 H23A        -6.6290    -0.5120     0.4030 h1         1 JZW      -0.013800
@<TRIPOS>BOND
     1     1     5 2   
     2     1     9 1   
     3     1    35 1   
     4     2     9 ar  
     5     2    15 ar  
     6     3    20 1   
     7     3    21 1   
     8     4     5 1   
     9     4    12 1   
    10     5    23 1   
    11     6    15 ar  
    12     6    17 ar  
    13     7     8 2   
    14     8    11 2   
    15     8    16 1   
    16     8    28 1   
    17     9    12 ar  
    18    10    17 1   
    19    10    19 1   
    20    10    22 1   
    21    12    17 ar  
    22    13    23 1   
    23    13    24 1   
    24    13    27 1   
    25    14    34 1   
    26    14    36 1   
    27    15    18 1   
    28    16    25 1   
    29    16    26 1   
    30    18    29 ar  
    31    18    33 ar  
    32    19    20 1   
    33    19    37 1   
    34    19    38 1   
    35    20    39 1   
    36    20    40 1   
    37    21    22 1   
    38    21    41 1   
    39    21    42 1   
    40    22    43 1   
    41    22    44 1   
    42    23    45 1   
    43    23    46 1   
    44    24    25 1   
    45    24    47 1   
    46    24    48 1   
    47    25    49 1   
    48    25    50 1   
    49    26    27 1   
    50    26    51 1   
    51    26    52 1   
    52    27    53 1   
    53    27    54 1   
    54    28    55 1   
    55    28    56 1   
    56    28    57 1   
    57    29    30 ar  
    58    29    58 1   
    59    30    31 ar  
    60    30    59 1   
    61    31    32 ar  
    62    31    60 1   
    63    32    33 ar  
    64    32    34 1   
    65    33    61 1   
    66    34    62 1   
    67    34    63 1   
@<TRIPOS>SUBSTRUCTURE
     1 JZW         1 TEMP              0 ****  ****    0 ROOT
