@<TRIPOS>MOLECULE
JZX
   60    64     1     0     0
SMALL
bcc


@<TRIPOS>ATOM
      1 C1           0.0000     0.0000     0.0000 cp         1 JZX       0.714500
      2 N1           1.3180     0.0000     0.0000 nb         1 JZX      -0.622000
      3 O1          -2.6940     1.0440     5.3210 os         1 JZX      -0.409600
      4 S1           2.4140     0.0010     3.7110 ss         1 JZX      -0.177500
      5 C2          -0.1090     0.0010     2.3050 ca         1 JZX       0.582200
      6 N2          -0.7110     0.0010     1.1230 nb         1 JZX      -0.673000
      7 O2           6.6480     4.6760     6.5760 o          1 JZX      -0.586300
      8 S2           7.5780     4.6160     5.5030 s6         1 JZX       0.966900
      9 C3           2.0170     0.0000     1.1570 ca         1 JZX       0.469100
     10 N3           5.7020     1.3860     3.2270 n3         1 JZX      -0.538600
     11 O3           8.8580     4.0260     5.6760 o          1 JZX      -0.586300
     12 C4           1.2960     0.0010     2.3550 ca         1 JZX      -0.259700
     13 N4          -0.8540     0.0020     3.4730 nh         1 JZX      -0.453300
     14 C5           3.7970     0.0010     2.6300 cc         1 JZX       0.021400
     15 N5           6.8360     3.6590     4.3730 n3         1 JZX      -0.552500
     16 C6           3.4040    -0.0000     1.3660 cd         1 JZX      -0.208800
     17 N6          -2.7460     0.0130    -2.4890 nb         1 JZX      -0.651000
     18 C7           5.2360     0.0010     3.0800 c3         1 JZX       0.242000
     19 N7          -2.8200     0.0240    -4.8330 nv         1 JZX      -0.555500
     20 C8          -0.7150     0.0060    -1.2980 cp         1 JZX      -0.346800
     21 C9           7.1560     1.4320     3.4320 c3         1 JZX       0.127300
     22 C10          7.6270     2.8900     3.3990 c3         1 JZX       0.238800
     23 C11          5.3710     3.5540     4.3170 c3         1 JZX       0.238800
     24 C12          4.9890     2.0690     4.3140 c3         1 JZX       0.127300
     25 C13         -2.2950     0.0030     3.1790 c3         1 JZX       0.089300
     26 C14         -3.0780    -0.0560     4.4930 c3         1 JZX       0.213400
     27 C15         -1.2970     1.0750     5.6280 c3         1 JZX       0.213400
     28 C16         -0.4960     1.1460     4.3250 c3         1 JZX       0.089300
     29 C17         -2.1060     0.0060    -1.3380 ca         1 JZX       0.485200
     30 C18         -2.1000     0.0170    -3.6460 ca         1 JZX       0.518200
     31 C19          0.0000     0.0110    -2.5020 ca         1 JZX       0.014000
     32 C20         -0.7080     0.0170    -3.6870 ca         1 JZX      -0.300300
     33 C21          7.7260     6.2340     4.6980 c3         1 JZX       0.011700
     34 H6           4.1100    -0.0010     0.5440 ha         1 JZX       0.136000
     35 H7           5.8440    -0.5090     2.3420 h1         1 JZX       0.020700
     36 H7A          5.3170    -0.5110     4.0310 h1         1 JZX       0.020700
     37 HN7         -2.4810    -0.4820    -5.6270 hn         1 JZX       0.271800
     38 HN7A        -3.6830     0.5270    -4.8920 hn         1 JZX       0.271800
     39 H9           7.6490     0.8770     2.6430 h1         1 JZX       0.022950
     40 H9A          7.3990     0.9960     4.3930 h1         1 JZX       0.022950
     41 H10          7.4780     3.2980     2.4070 h1         1 JZX       0.027450
     42 H10A         8.6770     2.9390     3.6650 h1         1 JZX       0.027450
     43 H11          5.0080     4.0250     3.4120 h1         1 JZX       0.027450
     44 H11A         4.9390     4.0380     5.1850 h1         1 JZX       0.027450
     45 H12          3.9210     1.9730     4.1610 h1         1 JZX       0.022950
     46 H12A         5.2650     1.6240     5.2620 h1         1 JZX       0.022950
     47 H13         -2.5530     0.9100     2.6450 h1         1 JZX       0.038200
     48 H13A        -2.5400    -0.8620     2.5740 h1         1 JZX       0.038200
     49 H14         -4.1390     0.0040     4.2840 h1         1 JZX       0.015950
     50 H14A        -2.8560    -0.9850     5.0040 h1         1 JZX       0.015950
     51 H15         -1.0800     1.9470     6.2330 h1         1 JZX       0.015950
     52 H15A        -1.0270     0.1760     6.1690 h1         1 JZX       0.015950
     53 H16         -0.7310     2.0680     3.8080 h1         1 JZX       0.038200
     54 H16A         0.5630     1.1100     4.5510 h1         1 JZX       0.038200
     55 H17         -2.6680     0.0020    -0.4120 h4         1 JZX      -0.005900
     56 H19          1.0830     0.0110    -2.5040 ha         1 JZX       0.124000
     57 H20         -0.1880     0.0210    -4.6370 ha         1 JZX       0.118000
     58 H21          6.8000     6.4700     4.1870 h1         1 JZX       0.062033
     59 H21A         8.5370     6.2080     3.9800 h1         1 JZX       0.062033
     60 H21B         7.9290     6.9920     5.4450 h1         1 JZX       0.062033
@<TRIPOS>BOND
     1     1     2 ar  
     2     1     6 ar  
     3     1    20 1   
     4     2     9 ar  
     5     3    26 1   
     6     3    27 1   
     7     4    12 1   
     8     4    14 1   
     9     5     6 ar  
    10     5    12 ar  
    11     5    13 1   
    12     7     8 2   
    13     8    11 2   
    14     8    15 1   
    15     8    33 1   
    16     9    12 ar  
    17     9    16 1   
    18    10    18 1   
    19    10    21 1   
    20    10    24 1   
    21    13    25 1   
    22    13    28 1   
    23    14    16 2   
    24    14    18 1   
    25    15    22 1   
    26    15    23 1   
    27    16    34 1   
    28    17    29 ar  
    29    17    30 ar  
    30    18    35 1   
    31    18    36 1   
    32    19    30 1   
    33    19    37 1   
    34    19    38 1   
    35    20    29 ar  
    36    20    31 ar  
    37    21    22 1   
    38    21    39 1   
    39    21    40 1   
    40    22    41 1   
    41    22    42 1   
    42    23    24 1   
    43    23    43 1   
    44    23    44 1   
    45    24    45 1   
    46    24    46 1   
    47    25    26 1   
    48    25    47 1   
    49    25    48 1   
    50    26    49 1   
    51    26    50 1   
    52    27    28 1   
    53    27    51 1   
    54    27    52 1   
    55    28    53 1   
    56    28    54 1   
    57    29    55 1   
    58    30    32 ar  
    59    31    32 ar  
    60    31    56 1   
    61    32    57 1   
    62    33    58 1   
    63    33    59 1   
    64    33    60 1   
@<TRIPOS>SUBSTRUCTURE
     1 JZX         1 TEMP              0 ****  ****    0 ROOT
