@<TRIPOS>MOLECULE
JZY
   62    66     1     0     0
SMALL
bcc


@<TRIPOS>ATOM
      1 C1           0.0000     0.0000     0.0000 ca         1 JZY       0.578200
      2 N2           1.3260     0.0000     0.0000 nb         1 JZY      -0.667000
      3 C3           2.0040     0.0000     1.1450 cp         1 JZY       0.720500
      4 N4           1.4060     0.0010     2.3180 nb         1 JZY      -0.614000
      5 C5           0.0570     0.0010     2.4140 ca         1 JZY       0.461100
      6 C6          -0.6820     0.0010     1.2290 ca         1 JZY      -0.254700
      7 S7          -2.3990    -0.0000     1.6090 ss         1 JZY      -0.176500
      8 C8          -2.0630     0.0010     3.3330 cc         1 JZY       0.015400
      9 C9          -0.7600     0.0010     3.5570 cd         1 JZY      -0.205800
     10 N10         -0.7020     0.0050    -1.1940 nh         1 JZY      -0.452300
     11 C11          0.2140     0.0100    -2.3440 c3         1 JZY       0.089300
     12 C12         -0.6010     0.0750    -3.6390 c3         1 JZY       0.213400
     13 O13         -1.5140    -1.0250    -3.6780 os         1 JZY      -0.409600
     14 C14         -2.4210    -1.0600    -2.5730 c3         1 JZY       0.213400
     15 C15         -1.6240    -1.1370    -1.2680 c3         1 JZY       0.089300
     16 C16          3.4860     0.0000     1.0970 cp         1 JZY      -0.481100
     17 C17          4.1760    -0.8840     0.2620 ca         1 JZY       0.534200
     18 N18          5.4970    -0.8530     0.2490 nb         1 JZY      -0.715000
     19 C19          6.1660    -0.0010     1.0120 ca         1 JZY       0.720900
     20 N20          5.5470     0.8530     1.8160 nb         1 JZY      -0.705000
     21 C21          4.2280     0.8870     1.8820 ca         1 JZY       0.507600
     22 C22          3.5340     1.8650     2.7950 c3         1 JZY      -0.057400
     23 N23          7.5460    -0.0010     0.9680 nv         1 JZY      -0.488500
     24 C24         -3.1170     0.0020     4.4090 c3         1 JZY       0.245000
     25 N25         -3.4610     1.3870     4.7590 n3         1 JZY      -0.541600
     26 C26         -4.6440     1.4330     5.6270 c3         1 JZY       0.124300
     27 C27         -4.8600     2.8700     6.1140 c3         1 JZY       0.239300
     28 N28         -4.9150     3.7570     4.9420 n3         1 JZY      -0.552500
     29 C29         -3.8290     3.6690     3.9530 c3         1 JZY       0.239300
     30 C30         -3.6530     2.2020     3.5510 c3         1 JZY       0.124300
     31 S31         -6.1630     4.8250     4.7410 s6         1 JZY       0.964900
     32 O32         -6.2340     5.0220     3.3350 o          1 JZY      -0.586300
     33 O33         -7.2440     4.2380     5.4520 o          1 JZY      -0.586300
     34 C34         -5.6030     6.3390     5.5690 c3         1 JZY       0.011700
     35 H9          -0.3480     0.0020     4.5590 ha         1 JZY       0.138000
     36 H11          0.8640     0.8740    -2.2840 h1         1 JZY       0.038450
     37 H11A         0.8070    -0.8970    -2.3370 h1         1 JZY       0.038450
     38 H12         -1.1570     1.0050    -3.6690 h1         1 JZY       0.016450
     39 H12A         0.0670     0.0190    -4.4890 h1         1 JZY       0.016450
     40 H14         -3.0250    -0.1610    -2.5740 h1         1 JZY       0.016450
     41 H14A        -3.0590    -1.9320    -2.6580 h1         1 JZY       0.016450
     42 H15         -1.0570    -2.0600    -1.2460 h1         1 JZY       0.038450
     43 H15A        -2.3060    -1.1050    -0.4260 h1         1 JZY       0.038450
     44 H17          3.6360    -1.5830    -0.3640 h4         1 JZY      -0.012900
     45 H22          2.7600     2.3870     2.2440 hc         1 JZY       0.024033
     46 H22A         3.0880     1.3310     3.6250 hc         1 JZY       0.024033
     47 H22B         4.2540     2.5820     3.1710 hc         1 JZY       0.024033
     48 HN23         8.0650     0.6360     1.5400 hn         1 JZY       0.275300
     49 HN2A         8.0280    -0.6400     0.3660 hn         1 JZY       0.275300
     50 H24         -4.0020    -0.5090     4.0480 h1         1 JZY       0.019700
     51 H24A        -2.7380    -0.5090     5.2860 h1         1 JZY       0.019700
     52 H26         -5.5130     1.1080     5.0690 h1         1 JZY       0.024950
     53 H26A        -4.4910     0.7830     6.4800 h1         1 JZY       0.024950
     54 H27         -5.7940     2.9320     6.6600 h1         1 JZY       0.027200
     55 H27A        -4.0370     3.1640     6.7540 h1         1 JZY       0.027200
     56 H29         -2.9090     4.0390     4.3890 h1         1 JZY       0.027200
     57 H29A        -4.0850     4.2560     3.0790 h1         1 JZY       0.027200
     58 H30         -4.5380     1.8630     3.0250 h1         1 JZY       0.024950
     59 H30A        -2.7850     2.1050     2.9100 h1         1 JZY       0.024950
     60 H34         -6.4540     6.9810     5.7600 h1         1 JZY       0.061700
     61 H34A        -4.8950     6.8560     4.9330 h1         1 JZY       0.061700
     62 H34B        -5.1260     6.0820     6.5070 h1         1 JZY       0.061700
@<TRIPOS>BOND
     1     1     2 ar  
     2     1     6 ar  
     3     1    10 1   
     4     2     3 ar  
     5     3     4 ar  
     6     3    16 1   
     7     4     5 ar  
     8     5     6 ar  
     9     5     9 1   
    10     6     7 1   
    11     7     8 1   
    12     8     9 2   
    13     8    24 1   
    14     9    35 1   
    15    10    11 1   
    16    10    15 1   
    17    11    12 1   
    18    11    36 1   
    19    11    37 1   
    20    12    13 1   
    21    12    38 1   
    22    12    39 1   
    23    13    14 1   
    24    14    15 1   
    25    14    40 1   
    26    14    41 1   
    27    15    42 1   
    28    15    43 1   
    29    16    17 ar  
    30    16    21 ar  
    31    17    18 ar  
    32    17    44 1   
    33    18    19 ar  
    34    19    20 ar  
    35    19    23 1   
    36    20    21 ar  
    37    21    22 1   
    38    22    45 1   
    39    22    46 1   
    40    22    47 1   
    41    23    48 1   
    42    23    49 1   
    43    24    25 1   
    44    24    50 1   
    45    24    51 1   
    46    25    26 1   
    47    25    30 1   
    48    26    27 1   
    49    26    52 1   
    50    26    53 1   
    51    27    28 1   
    52    27    54 1   
    53    27    55 1   
    54    28    29 1   
    55    28    31 1   
    56    29    30 1   
    57    29    56 1   
    58    29    57 1   
    59    30    58 1   
    60    30    59 1   
    61    31    32 2   
    62    31    33 2   
    63    31    34 1   
    64    34    60 1   
    65    34    61 1   
    66    34    62 1   
@<TRIPOS>SUBSTRUCTURE
     1 JZY         1 TEMP              0 ****  ****    0 ROOT
