@<TRIPOS>MOLECULE
molecule
   46    48     1     0     0
SMALL
bcc


@<TRIPOS>ATOM
      1 N2           0.0000     0.0000     0.0000 n          1 JZZ      -0.299500
      2 C3           1.3780     0.0000     0.0000 cc         1 JZZ       0.580200
      3 O3           2.1670     0.0020    -1.1020 os         1 JZZ      -0.380400
      4 N4           1.7930     0.0000     1.2300 n2         1 JZZ      -0.577300
      5 N5           0.6710    -0.0010     2.0700 n          1 JZZ      -0.238800
      6 C6          -0.4220    -0.0020     1.2800 c          1 JZZ       0.776500
      7 O6          -1.5820    -0.0030     1.6550 o          1 JZZ      -0.638500
      8 C7           0.6830    -0.0040     3.5350 c3         1 JZZ       0.156300
      9 C27          3.5810     0.0020    -0.8870 c3         1 JZZ       0.140700
     10 CAA         -0.4900     7.5960     0.9170 c3         1 JZZ      -0.080767
     11 CAB         -2.0960     3.6050    -2.8800 ca         1 JZZ      -0.104000
     12 CAC         -2.4860     2.4250    -3.4270 ca         1 JZZ      -0.117000
     13 CAD         -2.0660     1.2100    -2.8540 ca         1 JZZ      -0.030000
     14 CAE         -2.4570    -0.0220    -3.4030 ca         1 JZZ      -0.101000
     15 CAF         -2.0400    -1.1850    -2.8320 ca         1 JZZ      -0.125000
     16 CAG          1.0780     7.6510    -0.9100 c3         1 JZZ      -0.080767
     17 CAH         -0.1460     7.2400    -0.4490 c3         1 JZZ       0.008100
     18 CAI         -0.5310     5.9170    -0.7270 c1         1 JZZ      -0.086100
     19 CAK         -1.2730     3.6340    -1.7410 ca         1 JZZ       0.039000
     20 CAL         -0.8430     2.4560    -1.1530 ca         1 JZZ      -0.090000
     21 CAM         -1.2360     1.2280    -1.7040 ca         1 JZZ      -0.022000
     22 CAN         -0.8190     0.0060    -1.1340 ca         1 JZZ       0.061600
     23 CAO         -1.2250    -1.1810    -1.7040 ca         1 JZZ      -0.097000
     24 CAP         -1.3540     8.2530    -0.9800 c3         1 JZZ      -0.080767
     25 H7           0.1760     0.8810     3.9010 h1         1 JZZ       0.053033
     26 H7A          1.7080    -0.0050     3.8870 h1         1 JZZ       0.053033
     27 H7B          0.1750    -0.8880     3.8990 h1         1 JZZ       0.053033
     28 H27          3.8920     0.9760    -0.5290 h1         1 JZZ       0.054367
     29 H27A         3.8340    -0.7510    -0.1510 h1         1 JZZ       0.054367
     30 H27B         4.0870    -0.2180    -1.8190 h1         1 JZZ       0.054367
     31 HAA         -1.4510     7.1660     1.1720 hc         1 JZZ       0.039367
     32 HAAA        -0.5420     8.6750     1.0070 hc         1 JZZ       0.039367
     33 HAAB         0.2670     7.2140     1.5920 hc         1 JZZ       0.039367
     34 HAB         -2.4140     4.5400    -3.3260 ha         1 JZZ       0.138000
     35 HAC         -3.1200     2.4180    -4.3060 ha         1 JZZ       0.137000
     36 HAE         -3.0890    -0.0460    -4.2830 ha         1 JZZ       0.136000
     37 HAF         -2.3410    -2.1350    -3.2570 ha         1 JZZ       0.136000
     38 HAG          1.1180     7.5280    -1.9860 hc         1 JZZ       0.039367
     39 HAGA         1.8560     7.0540    -0.4500 hc         1 JZZ       0.039367
     40 HAGB         1.2260     8.6940    -0.6590 hc         1 JZZ       0.039367
     41 HAL         -0.2090     2.4880    -0.2750 ha         1 JZZ       0.148000
     42 HAO         -0.9030    -2.1170    -1.2640 ha         1 JZZ       0.142000
     43 HAP         -1.5320     8.0810    -2.0350 hc         1 JZZ       0.039367
     44 HAPA        -2.2620     8.0550    -0.4240 hc         1 JZZ       0.039367
     45 HAPB        -1.0550     9.2830    -0.8280 hc         1 JZZ       0.039367
     46 CAJ         -0.8760     4.8910    -1.1830 cg         1 JZZ      -0.124000
@<TRIPOS>BOND
     1     1     2 1
     2     1     6 1
     3     1    22 1
     4     2     3 1
     5     2     4 2
     6     3     9 1
     7     4     5 1
     8     5     6 1
     9     5     8 1
    10     6     7 2
    11    10    17 1
    12    11    12 ar
    13    11    19 ar
    14    12    13 ar
    15    13    14 ar
    16    13    21 ar
    17    14    15 ar
    18    15    23 ar
    19    16    17 1
    20    17    18 1
    21    17    24 1
    22    18    46 3
    23    46    19 1
    24    19    20 ar
    25    20    21 ar
    26    21    22 ar
    27    22    23 ar
    28     8    25 1
    29     8    26 1
    30     8    27 1
    31     9    28 1
    32     9    29 1
    33     9    30 1
    34    10    31 1
    35    10    32 1
    36    10    33 1
    37    11    34 1
    38    12    35 1
    39    14    36 1
    40    15    37 1
    41    16    38 1
    42    16    39 1
    43    16    40 1
    44    20    41 1
    45    23    42 1
    46    24    43 1
    47    24    44 1
    48    24    45 1
@<TRIPOS>SUBSTRUCTURE
     1 JZZ         1 TEMP              0 ****  ****    0 ROOT
