@<TRIPOS>MOLECULE
molecule
   45    46     1     0     0
SMALL
bcc


@<TRIPOS>ATOM
      1 O3           0.0000     0.0000     0.0000 oh         1 Y00      -0.523100
      2 C16          1.3580     0.0000     0.0000 ca         1 Y00       0.097100
      3 C15          2.0540     0.0000     1.2010 ca         1 Y00      -0.151000
      4 C14          3.4350    -0.0010     1.1980 ca         1 Y00      -0.114500
      5 C17          2.0540    -0.0050    -1.2010 ca         1 Y00      -0.151000
      6 C18          3.4340    -0.0060    -1.1980 ca         1 Y00      -0.114500
      7 C13          4.1250    -0.0000    -0.0010 ca         1 Y00      -0.089300
      8 C12          5.6320     0.0000    -0.0010 c3         1 Y00      -0.032100
      9 C11          6.1430    -1.4420    -0.0010 c3         1 Y00      -0.064400
     10 C9           7.6720    -1.4420    -0.0010 c3         1 Y00       0.159500
     11 C10          8.1830    -2.8790     0.1240 c3         1 Y00      -0.127100
     12 N1           8.1610    -0.8570    -1.2570 n7         1 Y00      -0.821200
     13 C8           9.5090    -0.2960    -1.0860 c3         1 Y00       0.158800
     14 C1           9.9830     0.3030    -2.4120 c3         1 Y00      -0.036100
     15 C2          11.3660     0.8780    -2.2370 ca         1 Y00      -0.080300
     16 C7          12.4760     0.0850    -2.4630 ca         1 Y00      -0.153000
     17 C6          13.7470     0.6120    -2.3030 ca         1 Y00       0.095100
     18 O1          14.8400    -0.1650    -2.5270 oh         1 Y00      -0.503100
     19 C5          13.9020     1.9400    -1.9160 ca         1 Y00       0.090100
     20 O2          15.1490     2.4620    -1.7580 oh         1 Y00      -0.503100
     21 C4          12.7860     2.7280    -1.6910 ca         1 Y00      -0.154000
     22 C3          11.5200     2.1970    -1.8570 ca         1 Y00      -0.119000
     23 H3          -0.3140     0.8890    -0.0010 ho         1 Y00       0.417000
     24 H15          1.5140    -0.0000     2.1400 ha         1 Y00       0.138000
     25 H17          1.5130    -0.0100    -2.1400 ha         1 Y00       0.138000
     26 H14          3.9790     0.0010     2.1350 ha         1 Y00       0.133500
     27 H18          3.9770    -0.0080    -2.1360 ha         1 Y00       0.133500
     28 H121         5.9930     0.5110     0.8830 hc         1 Y00       0.056200
     29 H122         5.9930     0.5110    -0.8860 hc         1 Y00       0.056200
     30 H111         5.7820    -1.9530     0.8830 hc         1 Y00       0.046700
     31 H112         5.7820    -1.9530    -0.8860 hc         1 Y00       0.046700
     32 H9           8.0340    -0.8560     0.8350 h1         1 Y00       0.060700
     33 H101         8.1510    -3.3590    -0.8460 hc         1 Y00       0.039367
     34 H102         9.2030    -2.8690     0.4890 hc         1 Y00       0.039367
     35 H103         7.5560    -3.4250     0.8190 hc         1 Y00       0.039367
     36 H1           8.1800    -1.5600    -1.9690 hn         1 Y00       0.353800
     37 H81C        10.1900    -1.0810    -0.7800 h1         1 Y00       0.038200
     38 H82C         9.4850     0.4770    -0.3280 h1         1 Y00       0.038200
     39 H11C        10.0070    -0.4710    -3.1700 hc         1 Y00       0.055200
     40 H12C         9.3020     1.0870    -2.7180 hc         1 Y00       0.055200
     41 H7          12.3520    -0.9330    -2.8120 ha         1 Y00       0.140000
     42 HA          10.6480     2.8150    -1.6810 ha         1 Y00       0.138000
     43 HB          14.9160    -0.3430    -3.4490 ho         1 Y00       0.415000
     44 H2          15.3120     3.0960    -2.4370 ho         1 Y00       0.415000
     45 H4          12.9050     3.7620    -1.3910 ha         1 Y00       0.142000
@<TRIPOS>BOND
     1     1     2 1
     2     2     3 ar
     3     2     5 ar
     4     3     4 ar
     5     4     7 ar
     6     5     6 ar
     7     6     7 ar
     8     7     8 1
     9     8     9 1
    10     9    10 1
    11    10    11 1
    12    10    12 1
    13    12    13 1
    14    13    14 1
    15    14    15 1
    16    15    16 ar
    17    15    22 ar
    18    16    17 ar
    19    17    18 1
    20    17    19 ar
    21    19    20 1
    22    19    21 ar
    23    21    22 ar
    24     1    23 1
    25     3    24 1
    26     5    25 1
    27     4    26 1
    28     6    27 1
    29     8    28 1
    30     8    29 1
    31     9    30 1
    32     9    31 1
    33    10    32 1
    34    11    33 1
    35    11    34 1
    36    11    35 1
    37    12    36 1
    38    13    37 1
    39    13    38 1
    40    14    39 1
    41    14    40 1
    42    16    41 1
    43    22    42 1
    44    18    43 1
    45    20    44 1
    46    21    45 1
@<TRIPOS>SUBSTRUCTURE
     1 Y00         1 TEMP              0 ****  ****    0 ROOT
