@<TRIPOS>MOLECULE
Y00
   45    46     1     0     0
SMALL
bcc


@<TRIPOS>ATOM
      1 O3           0.0000     0.0000     0.0000 oh         1 Y00      -0.501100
      2 C16          1.3580     0.0000     0.0000 ca         1 Y00       0.117100
      3 C15          2.0540     0.0000     1.2010 ca         1 Y00      -0.137000
      4 C14          3.4350    -0.0010     1.1980 ca         1 Y00      -0.079500
      5 C17          2.0540    -0.0050    -1.2010 ca         1 Y00      -0.137000
      6 C18          3.4340    -0.0060    -1.1980 ca         1 Y00      -0.079500
      7 C13          4.1250    -0.0000    -0.0010 ca         1 Y00      -0.103300
      8 C12          5.6320     0.0000    -0.0010 c3         1 Y00       0.029900
      9 C11          6.1430    -1.4420    -0.0010 c3         1 Y00      -0.018400
     10 C9           7.6720    -1.4420    -0.0010 c3         1 Y00       0.113500
     11 C10          8.1830    -2.8790     0.1240 c3         1 Y00      -0.031100
     12 N1           8.1610    -0.8570    -1.2570 n7         1 Y00      -0.590200
     13 C8           9.5090    -0.2960    -1.0860 c3         1 Y00       0.141800
     14 C1           9.9830     0.3030    -2.4120 c3         1 Y00       0.030900
     15 C2          11.3660     0.8780    -2.2370 ca         1 Y00      -0.087300
     16 C7          12.4760     0.0850    -2.4630 ca         1 Y00      -0.133000
     17 C6          13.7470     0.6120    -2.3030 ca         1 Y00       0.103100
     18 O1          14.8400    -0.1650    -2.5270 oh         1 Y00      -0.480100
     19 C5          13.9020     1.9400    -1.9160 ca         1 Y00       0.097100
     20 O2          15.1490     2.4620    -1.7580 oh         1 Y00      -0.480100
     21 C4          12.7860     2.7280    -1.6910 ca         1 Y00      -0.134000
     22 C3          11.5200     2.1970    -1.8570 ca         1 Y00      -0.092000
     23 H3          -0.3140     0.8890    -0.0010 ho         1 Y00       0.401000
     24 H15          1.5140    -0.0000     2.1400 ha         1 Y00       0.112000
     25 H17          1.5130    -0.0100    -2.1400 ha         1 Y00       0.112000
     26 H14          3.9790     0.0010     2.1350 ha         1 Y00       0.107000
     27 H18          3.9770    -0.0080    -2.1360 ha         1 Y00       0.107000
     28 H121         5.9930     0.5110     0.8830 hc         1 Y00       0.025200
     29 H122         5.9930     0.5110    -0.8860 hc         1 Y00       0.025200
     30 H111         5.7820    -1.9530     0.8830 hc         1 Y00       0.019700
     31 H112         5.7820    -1.9530    -0.8860 hc         1 Y00       0.019700
     32 H9           8.0340    -0.8560     0.8350 h1         1 Y00       0.036700
     33 H101         8.1510    -3.3590    -0.8460 hc         1 Y00       0.009367
     34 H102         9.2030    -2.8690     0.4890 hc         1 Y00       0.009367
     35 H103         7.5560    -3.4250     0.8190 hc         1 Y00       0.009367
     36 H1           8.1800    -1.5600    -1.9690 hn         1 Y00       0.258800
     37 H81C        10.1900    -1.0810    -0.7800 h1         1 Y00       0.012200
     38 H82C         9.4850     0.4770    -0.3280 h1         1 Y00       0.012200
     39 H11C        10.0070    -0.4710    -3.1700 hc         1 Y00       0.021700
     40 H12C         9.3020     1.0870    -2.7180 hc         1 Y00       0.021700
     41 H7          12.3520    -0.9330    -2.8120 ha         1 Y00       0.115000
     42 HA          10.6480     2.8150    -1.6810 ha         1 Y00       0.110000
     43 HB          14.9160    -0.3430    -3.4490 ho         1 Y00       0.396000
     44 H2          15.3120     3.0960    -2.4370 ho         1 Y00       0.396000
     45 H4          12.9050     3.7620    -1.3910 ha         1 Y00       0.113000
@<TRIPOS>BOND
     1     1     2 1   
     2     1    23 1   
     3     2     3 ar  
     4     2     5 ar  
     5     3     4 ar  
     6     3    24 1   
     7     4     7 ar  
     8     4    26 1   
     9     5     6 ar  
    10     5    25 1   
    11     6     7 ar  
    12     6    27 1   
    13     7     8 1   
    14     8     9 1   
    15     8    28 1   
    16     8    29 1   
    17     9    10 1   
    18     9    30 1   
    19     9    31 1   
    20    10    11 1   
    21    10    12 1   
    22    10    32 1   
    23    11    33 1   
    24    11    34 1   
    25    11    35 1   
    26    12    13 1   
    27    12    36 1   
    28    13    14 1   
    29    13    37 1   
    30    13    38 1   
    31    14    15 1   
    32    14    39 1   
    33    14    40 1   
    34    15    16 ar  
    35    15    22 ar  
    36    16    17 ar  
    37    16    41 1   
    38    17    18 1   
    39    17    19 ar  
    40    18    43 1   
    41    19    20 1   
    42    19    21 ar  
    43    20    44 1   
    44    21    22 ar  
    45    21    45 1   
    46    22    42 1   
@<TRIPOS>SUBSTRUCTURE
     1 Y00         1 TEMP              0 ****  ****    0 ROOT
