@<TRIPOS>MOLECULE
Y01
   84    87     1     0     0
SMALL
bcc


@<TRIPOS>ATOM
      1 CAA         0.6850   -0.2240    0.6720 c3        1 Y01     -0.089600
      2 CBA         2.1510   -0.2670    0.2970 c3        1 Y01     -0.067700
      3 CAB         3.0050   -0.3800    1.5450 c3        1 Y01     -0.089600
      4 CAN         2.4510   -1.4220   -0.6480 c3        1 Y01     -0.076400
      5 CAJ         1.9680   -1.1520   -2.0580 c3        1 Y01     -0.079400
      6 CAO         2.3020   -2.3110   -2.9760 c3        1 Y01     -0.080400
      7 CBB         1.8400   -2.0570   -4.4100 c3        1 Y01     -0.054700
      8 CAC         2.8390   -1.1540   -5.1080 c3        1 Y01     -0.090100
      9 CBE         1.6660   -3.3800   -5.1490 c3        1 Y01     -0.054700
     10 CAP         0.6300   -4.2950   -4.4620 c3        1 Y01     -0.078400
     11 CAQ        -0.1070   -5.0660   -5.5600 c3        1 Y01     -0.074400
     12 CBG         0.6730   -4.7560   -6.8280 c3        1 Y01     -0.063700
     13 CBI         1.1760   -3.3050   -6.6170 c3        1 Y01     -0.045000
     14 CAE         0.0630   -2.2790   -6.7420 c3        1 Y01     -0.082100
     15 CAU         2.2480   -3.0700   -7.6700 c3        1 Y01     -0.064400
     16 CAS         1.6860   -3.2790   -9.0670 c3        1 Y01     -0.075400
     17 CBF         1.0090   -4.6300   -9.2760 c3        1 Y01     -0.048700
     18 CBD        -0.0050   -4.9480   -8.1680 c3        1 Y01     -0.047700
     19 CAK        -0.4940   -6.3820   -8.3110 c3        1 Y01     -0.038200
     20 CAI        -0.8330   -6.7220   -9.7090 c2        1 Y01     -0.182200
     21 CAZ        -0.4520   -6.0080  -10.7790 c2        1 Y01     -0.092400
     22 CAV        -0.8740   -6.4330  -12.1450 c3        1 Y01     -0.070200
     23 CBH         0.3690   -4.7460  -10.6790 c3        1 Y01     -0.001800
     24 CAD        -0.5290   -3.5490  -10.9770 c3        1 Y01     -0.083100
     25 CAT         1.5060   -4.8000  -11.7120 c3        1 Y01     -0.067400
     26 CAR         1.0280   -5.1100  -13.1120 c3        1 Y01     -0.081400
     27 CBC         0.2890   -6.4420  -13.1310 c3        1 Y01      0.156100
     28 OAW        -0.2150   -6.5950  -14.4640 os        1 Y01     -0.456900
     29 CAY        -0.4640   -7.8700  -14.9240 c         1 Y01      0.639100
     30 OAG        -0.2870   -8.7970  -14.1290 o         1 Y01     -0.575000
     31 CAM        -0.9370   -7.8840  -16.3410 c3        1 Y01     -0.108400
     32 CAL        -0.0150   -8.6790  -17.2350 c3        1 Y01     -0.201400
     33 CAX        -0.6490   -8.8690  -18.6300 c         1 Y01      0.913600
     34 OAH         0.1380   -9.0650  -19.5980 o         1 Y01     -0.843300
     35 OAF        -1.9090   -8.8310  -18.7280 o         1 Y01     -0.843300
     36 HAA1        0.0500   -0.1060   -0.2380 hc        1 Y01      0.032200
     37 HAA2        0.3850   -1.1660    1.1930 hc        1 Y01      0.032200
     38 HAA3        0.4860    0.6350    1.3570 hc        1 Y01      0.032200
     39 HBA         2.4130    0.6970   -0.2250 hc        1 Y01      0.045700
     40 HAB1        4.0890   -0.3400    1.2820 hc        1 Y01      0.032200
     41 HAB2        2.8040   -1.3450    2.0700 hc        1 Y01      0.032200
     42 HAB3        2.7790    0.4590    2.2460 hc        1 Y01      0.032200
     43 HAN1        1.9710   -2.3570   -0.2570 hc        1 Y01      0.039700
     44 HAN2        3.5590   -1.6010   -0.6690 hc        1 Y01      0.039700
     45 HAJ1        2.4400   -0.2100   -2.4420 hc        1 Y01      0.039700
     46 HAJ2        0.8580   -0.9870   -2.0530 hc        1 Y01      0.039700
     47 HAO1        3.4090   -2.4910   -2.9700 hc        1 Y01      0.040700
     48 HAO2        1.8160   -3.2370   -2.5710 hc        1 Y01      0.040700
     49 HBB         0.8430   -1.5340   -4.3740 hc        1 Y01      0.049700
     50 HAC1        2.3890   -0.6980   -6.0220 hc        1 Y01      0.033367
     51 HAC2        3.7470   -1.7300   -5.4090 hc        1 Y01      0.033367
     52 HAC3        3.1570   -0.3250   -4.4300 hc        1 Y01      0.033367
     53 HBE         2.6630   -3.9020   -5.1500 hc        1 Y01      0.045700
     54 HAP1       -0.0940   -3.6870   -3.8640 hc        1 Y01      0.037700
     55 HAP2        1.1440   -5.0010   -3.7650 hc        1 Y01      0.037700
     56 HAQ1       -1.1670   -4.7210   -5.6490 hc        1 Y01      0.042200
     57 HAQ2       -0.1220   -6.1630   -5.3520 hc        1 Y01      0.042200
     58 HBG         1.5840   -5.4260   -6.8240 hc        1 Y01      0.045700
     59 HBD        -0.8900   -4.2610   -8.2560 hc        1 Y01      0.056700
     60 HAE1       -0.4410   -2.3450   -7.7360 hc        1 Y01      0.035033
     61 HAE2       -0.7050   -2.4430   -5.9480 hc        1 Y01      0.035033
     62 HAE3        0.4750   -1.2470   -6.6340 hc        1 Y01      0.035033
     63 HAU1        3.1030   -3.7740   -7.4950 hc        1 Y01      0.037700
     64 HAU2        2.6500   -2.0270   -7.5950 hc        1 Y01      0.037700
     65 HAS1        2.5290   -3.1830   -9.8020 hc        1 Y01      0.041700
     66 HAS2        0.9600   -2.4520   -9.2860 hc        1 Y01      0.041700
     67 HBF         1.8120   -5.4210   -9.2140 hc        1 Y01      0.048700
     68 HAK1        0.3000   -7.0930   -7.9490 hc        1 Y01      0.043200
     69 HAK2       -1.3910   -6.5300   -7.6520 hc        1 Y01      0.043200
     70 HAI        -1.4270   -7.6430   -9.8330 ha        1 Y01      0.126000
     71 HAV1       -1.3210   -7.4640  -12.1240 hc        1 Y01      0.063700
     72 HAV2       -1.6690   -5.7330  -12.5220 hc        1 Y01      0.063700
     73 HBC         0.9900   -7.2890  -12.8920 h1        1 Y01      0.068700
     74 HAD1       -1.1980   -3.3310  -10.1110 hc        1 Y01      0.036033
     75 HAD2       -1.1660   -3.7530  -11.8720 hc        1 Y01      0.036033
     76 HAD3        0.0860   -2.6420  -11.1940 hc        1 Y01      0.036033
     77 HAT1        2.0380   -3.8120  -11.7230 hc        1 Y01      0.039700
     78 HAT2        2.2470   -5.5810  -11.3960 hc        1 Y01      0.039700
     79 HAR1        0.3470   -4.3010  -13.4830 hc        1 Y01      0.053700
     80 HAR2        1.9020   -5.1610  -13.8110 hc        1 Y01      0.053700
     81 HAM1       -1.9600   -8.3510  -16.3700 hc        1 Y01      0.086700
     82 HAM2       -1.0290   -6.8340  -16.7230 hc        1 Y01      0.086700
     83 HAL1        0.9690   -8.1620  -17.3480 hc        1 Y01      0.036700
     84 HAL2        0.1700   -9.6920  -16.7990 hc        1 Y01      0.036700
@<TRIPOS>BOND
     1    1    2 1   
     2    1   36 1   
     3    1   37 1   
     4    1   38 1   
     5    2    3 1   
     6    2    4 1   
     7    2   39 1   
     8    3   40 1   
     9    3   41 1   
    10    3   42 1   
    11    4    5 1   
    12    4   43 1   
    13    4   44 1   
    14    5    6 1   
    15    5   45 1   
    16    5   46 1   
    17    6    7 1   
    18    6   47 1   
    19    6   48 1   
    20    7    8 1   
    21    7    9 1   
    22    7   49 1   
    23    8   50 1   
    24    8   51 1   
    25    8   52 1   
    26    9   10 1   
    27    9   13 1   
    28    9   53 1   
    29   10   11 1   
    30   10   54 1   
    31   10   55 1   
    32   11   12 1   
    33   11   56 1   
    34   11   57 1   
    35   12   13 1   
    36   12   18 1   
    37   12   58 1   
    38   13   14 1   
    39   13   15 1   
    40   14   60 1   
    41   14   61 1   
    42   14   62 1   
    43   15   16 1   
    44   15   63 1   
    45   15   64 1   
    46   16   17 1   
    47   16   65 1   
    48   16   66 1   
    49   17   18 1   
    50   17   23 1   
    51   17   67 1   
    52   18   19 1   
    53   18   59 1   
    54   19   20 1   
    55   19   68 1   
    56   19   69 1   
    57   20   21 2   
    58   20   70 1   
    59   21   22 1   
    60   21   23 1   
    61   22   27 1   
    62   22   71 1   
    63   22   72 1   
    64   23   24 1   
    65   23   25 1   
    66   24   74 1   
    67   24   75 1   
    68   24   76 1   
    69   25   26 1   
    70   25   77 1   
    71   25   78 1   
    72   26   27 1   
    73   26   79 1   
    74   26   80 1   
    75   27   28 1   
    76   27   73 1   
    77   28   29 1   
    78   29   30 2   
    79   29   31 1   
    80   31   32 1   
    81   31   81 1   
    82   31   82 1   
    83   32   33 1   
    84   32   83 1   
    85   32   84 1   
    86   33   34 1   
    87   33   35 1   
@<TRIPOS>SUBSTRUCTURE
     1 Y01         1 TEMP              0 ****  ****    0 ROOT
