@<TRIPOS>MOLECULE
molecule
   84    87     1     0     0
SMALL
bcc


@<TRIPOS>ATOM
      1 CAA          0.0000     0.0000     0.0000 c3         1 Y01      -0.087600
      2 CBA          1.5300     0.0000     0.0000 c3         1 Y01      -0.077700
      3 CAB          2.0390     0.0000     1.4430 c3         1 Y01      -0.087600
      4 CAN          2.0400    -1.2500    -0.7200 c3         1 Y01      -0.076400
      5 CAJ          1.6370    -1.1890    -2.1950 c3         1 Y01      -0.085400
      6 CAO          2.1460    -2.4380    -2.9150 c3         1 Y01      -0.080400
      7 CBB          1.7420    -2.3770    -4.3900 c3         1 Y01      -0.069700
      8 CAC          2.4530    -1.2020    -5.0650 c3         1 Y01      -0.095100
      9 CBE          2.1430    -3.6810    -5.0830 c3         1 Y01      -0.055700
     10 CAP          1.4050    -4.8800    -4.4370 c3         1 Y01      -0.082400
     11 CAQ          0.6120    -5.5740    -5.5790 c3         1 Y01      -0.076400
     12 CBG          1.3880    -5.1600    -6.8350 c3         1 Y01      -0.065700
     13 CBI          1.6900    -3.6660    -6.5400 c3         1 Y01      -0.064000
     14 CAE          0.4090    -2.8410    -6.6770 c3         1 Y01      -0.092100
     15 CAU          2.7150    -3.2080    -7.5600 c3         1 Y01      -0.066400
     16 CAS          2.0400    -3.2790    -8.9390 c3         1 Y01      -0.081400
     17 CBF          1.5280    -4.6830    -9.2470 c3         1 Y01      -0.050700
     18 CBD          0.6110    -5.2140    -8.1380 c3         1 Y01      -0.058700
     19 CAK          0.2600    -6.6710    -8.4630 c3         1 Y01      -0.038200
     20 CAI         -0.3520    -6.7370    -9.8320 c2         1 Y01      -0.175200
     21 CAZ         -0.1060    -5.8640   -10.7640 c2         1 Y01      -0.104400
     22 CAV         -0.7780    -6.0420   -12.1140 c3         1 Y01      -0.058200
     23 CBH          0.8040    -4.6840   -10.5830 c3         1 Y01      -0.014800
     24 CAD         -0.0420    -3.4120   -10.6680 c3         1 Y01      -0.087100
     25 CAT          1.8180    -4.6430   -11.7300 c3         1 Y01      -0.065400
     26 CAR          1.0750    -4.6630   -13.0660 c3         1 Y01      -0.081400
     27 CBC          0.2960    -5.9740   -13.2030 c3         1 Y01       0.150100
     28 OAW         -0.3340    -6.0280   -14.5090 os         1 Y01      -0.437900
     29 CAY         -0.5140    -7.2430   -15.0500 c          1 Y01       0.617100
     30 OAG         -0.1560    -8.2300   -14.4500 o          1 Y01      -0.568000
     31 CAM         -1.1630    -7.3780   -16.4030 c3         1 Y01      -0.104400
     32 CAL         -1.2470    -8.8580   -16.7830 c3         1 Y01      -0.174400
     33 CAX         -1.8940    -8.9930   -18.1370 c          1 Y01       0.890600
     34 OAH         -2.0750   -10.2080   -18.6770 o          1 Y01      -0.853300
     35 OAF         -2.2520    -8.0060   -18.7360 o          1 Y01      -0.853300
     36 HAA1        -0.3610     0.6100     0.8190 hc         1 Y01       0.032700
     37 HAA2        -0.3610     0.4040    -0.9380 hc         1 Y01       0.032700
     38 HAA3        -0.3610    -1.0140     0.1190 hc         1 Y01       0.032700
     39 HBA          1.8920     0.8840    -0.5110 hc         1 Y01       0.048700
     40 HAB1         1.7020     0.8990     1.9450 hc         1 Y01       0.032700
     41 HAB2         1.6540    -0.8690     1.9620 hc         1 Y01       0.032700
     42 HAB3         3.1220    -0.0290     1.4450 hc         1 Y01       0.032700
     43 HAN1         3.1190    -1.2960    -0.6430 hc         1 Y01       0.040700
     44 HAN2         1.6060    -2.1320    -0.2630 hc         1 Y01       0.040700
     45 HAJ1         2.0690    -0.3070    -2.6510 hc         1 Y01       0.043200
     46 HAJ2         0.5570    -1.1430    -2.2720 hc         1 Y01       0.043200
     47 HAO1         3.2260    -2.4840    -2.8380 hc         1 Y01       0.041700
     48 HAO2         1.7140    -3.3200    -2.4590 hc         1 Y01       0.041700
     49 HBB          0.6700    -2.2420    -4.4650 hc         1 Y01       0.058700
     50 HAC1         3.3230    -1.5650    -5.5990 hc         1 Y01       0.036033
     51 HAC2         1.7760    -0.7220    -5.7610 hc         1 Y01       0.036033
     52 HAC3         2.7640    -0.4870    -4.3130 hc         1 Y01       0.036033
     53 HBE          3.2150    -3.8290    -5.0270 hc         1 Y01       0.052700
     54 HAP1         0.7220    -4.5270    -3.6740 hc         1 Y01       0.041200
     55 HAP2         2.1230    -5.5710    -4.0110 hc         1 Y01       0.041200
     56 HAQ1         0.6310    -6.6500    -5.4570 hc         1 Y01       0.044700
     57 HAQ2        -0.4040    -5.2020    -5.6180 hc         1 Y01       0.044700
     58 HBG          2.3100    -5.7230    -6.9160 hc         1 Y01       0.057700
     59 HBD         -0.2880    -4.6130    -8.0690 hc         1 Y01       0.067700
     60 HAE1        -0.1080    -3.1240    -7.5850 hc         1 Y01       0.039367
     61 HAE2        -0.2320    -3.0250    -5.8240 hc         1 Y01       0.039367
     62 HAE3         0.6610    -1.7880    -6.7180 hc         1 Y01       0.039367
     63 HAU1         3.5760    -3.8650    -7.5380 hc         1 Y01       0.041700
     64 HAU2         3.0150    -2.1890    -7.3490 hc         1 Y01       0.041700
     65 HAS1         2.7590    -2.9930    -9.6970 hc         1 Y01       0.045200
     66 HAS2         1.2060    -2.5880    -8.9580 hc         1 Y01       0.045200
     67 HBF          2.3830    -5.3450    -9.3250 hc         1 Y01       0.050700
     68 HAK1        -0.4480    -7.0430    -7.7330 hc         1 Y01       0.046700
     69 HAK2         1.1610    -7.2720    -8.4410 hc         1 Y01       0.046700
     70 HAI         -1.0310    -7.5510   -10.0550 ha         1 Y01       0.128000
     71 HAV1        -1.2720    -7.0050   -12.1500 hc         1 Y01       0.061700
     72 HAV2        -1.5010    -5.2500   -12.2660 hc         1 Y01       0.061700
     73 HBC          0.9760    -6.8090   -13.0900 h1         1 Y01       0.072700
     74 HAD1         0.6070    -2.5560   -10.8130 hc         1 Y01       0.036367
     75 HAD2        -0.6020    -3.2890    -9.7500 hc         1 Y01       0.036367
     76 HAD3        -0.7280    -3.4900   -11.5030 hc         1 Y01       0.036367
     77 HAT1         2.4050    -3.7350   -11.6580 hc         1 Y01       0.043700
     78 HAT2         2.4690    -5.5060   -11.6660 hc         1 Y01       0.043700
     79 HAR1         1.7900    -4.5850   -13.8760 hc         1 Y01       0.051700
     80 HAR2         0.3850    -3.8290   -13.1060 hc         1 Y01       0.051700
     81 HAM1        -0.5720    -6.8490   -17.1410 hc         1 Y01       0.077200
     82 HAM2        -2.1600    -6.9570   -16.3690 hc         1 Y01       0.077200
     83 HAL1        -0.2490    -9.2800   -16.8160 hc         1 Y01       0.044700
     84 HAL2        -1.8380    -9.3870   -16.0460 hc         1 Y01       0.044700
@<TRIPOS>BOND
     1     1     2 1
     2     2     3 1
     3     2     4 1
     4     4     5 1
     5     5     6 1
     6     6     7 1
     7     7     8 1
     8     7     9 1
     9     9    10 1
    10     9    13 1
    11    10    11 1
    12    11    12 1
    13    12    13 1
    14    12    18 1
    15    13    14 1
    16    13    15 1
    17    15    16 1
    18    16    17 1
    19    17    18 1
    20    17    23 1
    21    18    19 1
    22    19    20 1
    23    20    21 2
    24    21    22 1
    25    21    23 1
    26    22    27 1
    27    23    24 1
    28    23    25 1
    29    25    26 1
    30    26    27 1
    31    27    28 1
    32    28    29 1
    33    29    30 2
    34    29    31 1
    35    31    32 1
    36    32    33 1
    37    33    34 1
    38    33    35 1
    39     1    36 1
    40     1    37 1
    41     1    38 1
    42     2    39 1
    43     3    40 1
    44     3    41 1
    45     3    42 1
    46     4    43 1
    47     4    44 1
    48     5    45 1
    49     5    46 1
    50     6    47 1
    51     6    48 1
    52     7    49 1
    53     8    50 1
    54     8    51 1
    55     8    52 1
    56     9    53 1
    57    10    54 1
    58    10    55 1
    59    11    56 1
    60    11    57 1
    61    12    58 1
    62    18    59 1
    63    14    60 1
    64    14    61 1
    65    14    62 1
    66    15    63 1
    67    15    64 1
    68    16    65 1
    69    16    66 1
    70    17    67 1
    71    19    68 1
    72    19    69 1
    73    20    70 1
    74    22    71 1
    75    22    72 1
    76    27    73 1
    77    24    74 1
    78    24    75 1
    79    24    76 1
    80    25    77 1
    81    25    78 1
    82    26    79 1
    83    26    80 1
    84    31    81 1
    85    31    82 1
    86    32    83 1
    87    32    84 1
@<TRIPOS>SUBSTRUCTURE
     1 Y01         1 TEMP              0 ****  ****    0 ROOT
