@<TRIPOS>MOLECULE
Y02
   67    69     1     0     0
SMALL
bcc


@<TRIPOS>ATOM
      1 N            0.0000     0.0000     0.0000 ns         1 Y02      -0.017000
      2 O1           1.0200     2.7900    -4.3210 oh         1 Y02      -0.283000
      3 O2           0.4470     1.3680    -2.4170 oh         1 Y02      -0.289000
      4 O3           2.3760     0.2610    -4.1590 oh         1 Y02      -0.281000
      5 O4           1.9540     0.0000     1.0510 o          1 Y02      -0.392000
      6 O5           3.5010    -0.1160    -1.0470 os         1 Y02      -0.234000
      7 O6          -2.6010    -1.2220     0.3430 os         1 Y02      -0.215000
      8 C01          3.3010     2.8800    -7.7890 DU         1 Y02       0.068000
      9 C04          2.4200     2.6750    -4.0570 DU         1 Y02       0.140000
     10 C05          2.6930     1.3670    -3.3110 c3         1 Y02       0.022000
     11 C06          1.8270     1.3080    -2.0510 c3         1 Y02       0.064000
     12 C07          2.1010     0.0010    -1.3050 c3         1 Y02       0.025000
     13 C08          4.7860     2.6320    -7.5150 c3         1 Y02      -0.132333
     14 C09          2.7580     1.7750    -8.6990 c3         1 Y02      -0.132333
     15 C10          3.1280     4.2360    -8.4760 c3         1 Y02      -0.132333
     16 C11          1.3480     0.0000     0.0000 c2         1 Y02       0.194000
     17 C19         -0.7320     0.0000     1.2700 c3         1 Y02      -0.067000
     18 C20         -2.2360    -0.0010     0.9900 c3         1 Y02       0.043000
     19 C22         -3.9120    -1.3830     0.0240 ca         1 Y02       0.058000
     20 C23         -4.3830    -0.9580    -1.2110 ca         1 Y02      -0.092000
     21 C24         -5.7160    -1.1230    -1.5330 ca         1 Y02      -0.099000
     22 C25         -6.5800    -1.7120    -0.6290 ca         1 Y02      -0.080000
     23 C26         -6.1130    -2.1360     0.6020 ca         1 Y02      -0.099000
     24 C27         -4.7800    -1.9790     0.9270 ca         1 Y02      -0.092000
     25 C28         -3.4430    -0.3160    -2.1970 c3         1 Y02      -0.060500
     26 C29         -8.0330    -1.8910    -0.9830 c3         1 Y02      -0.060000
     27 C30         -4.2700    -2.4420     2.2680 c3         1 Y02      -0.060500
     28 HN          -0.5000    -0.0490    -0.8650 hn         1 Y02       0.115000
     29 HO1          0.7800     3.7010    -4.3480 ho         1 Y02       0.192000
     30 HO2          0.0700     2.1690    -2.0910 ho         1 Y02       0.190000
     31 HO3          3.1680    -0.1940    -4.3920 ho         1 Y02       0.187000
     32 H02          2.8780     1.9840    -7.0030 DU         1 Y02       0.042000
     33 H03          2.5850     1.8470    -4.9990 DU         1 Y02       0.107000
     34 H04          2.7430     3.5110    -3.4490 ha         1 Y02       0.021000
     35 H05          3.7390     1.3210    -3.0340 h1         1 Y02       0.077000
     36 H06          2.0670     2.1470    -1.4090 h1         1 Y02       0.060000
     37 H07          1.7740    -0.8360    -1.9100 h1         1 Y02       0.087000
     38 H08          4.9160     1.6380    -7.1050 hc         1 Y02       0.051000
     39 H08A         5.1500     3.3650    -6.8060 hc         1 Y02       0.051000
     40 H08B         5.3430     2.7170    -8.4410 hc         1 Y02       0.051000
     41 H09          2.9960     2.0060    -9.7300 hc         1 Y02       0.051000
     42 H09A         1.6830     1.7070    -8.5830 hc         1 Y02       0.051000
     43 H09B         3.2110     0.8290    -8.4270 hc         1 Y02       0.051000
     44 H10          3.6630     4.2350    -9.4180 hc         1 Y02       0.051000
     45 H10A         3.5230     5.0170    -7.8380 hc         1 Y02       0.051000
     46 H10B         2.0760     4.4170    -8.6590 hc         1 Y02       0.051000
     47 H19         -0.4700     0.8850     1.8370 h1         1 Y02       0.071500
     48 H19A        -0.4700    -0.8840     1.8380 h1         1 Y02       0.071500
     49 H20         -2.4850     0.8360     0.3480 h1         1 Y02       0.042000
     50 H20A        -2.7780     0.0880     1.9240 h1         1 Y02       0.042000
     51 H21          3.3440    -1.8700    -2.1190 h1         1 Y02       0.031333
     52 H21A         4.9050    -1.0460    -2.2360 h1         1 Y02       0.031333
     53 H21B         4.4710    -1.9120    -0.7560 h1         1 Y02       0.031333
     54 H24         -6.0840    -0.7920    -2.4960 ha         1 Y02       0.111000
     55 H26         -6.7910    -2.5990     1.3080 ha         1 Y02       0.111000
     56 H28         -2.5290    -0.8940    -2.2540 hc         1 Y02       0.050000
     57 H28A        -3.2140     0.6920    -1.8740 hc         1 Y02       0.050000
     58 H28B        -3.9110    -0.2840    -3.1740 hc         1 Y02       0.050000
     59 H29         -8.5760    -2.2450    -0.1150 hc         1 Y02       0.046667
     60 H29A        -8.4460    -0.9420    -1.3040 hc         1 Y02       0.046667
     61 H29B        -8.1230    -2.6140    -1.7850 hc         1 Y02       0.046667
     62 H30         -4.9630    -3.1600     2.6890 hc         1 Y02       0.050000
     63 H30A        -3.2990    -2.9060     2.1450 hc         1 Y02       0.050000
     64 H30B        -4.1820    -1.5920     2.9340 hc         1 Y02       0.050000
     65 C21          4.0910    -1.3080    -1.5710 c3         1 Y02       0.052000
     66 C03          3.1790     2.6780    -5.3590 c2         1 Y02      -0.245000
     67 C02          2.5420     2.8760    -6.4870 c2         1 Y02      -0.123000
@<TRIPOS>BOND
     1     1    16 1   
     2     1    17 1   
     3     1    28 1   
     4     2     9 1   
     5     2    29 1   
     6     3    11 1   
     7     3    30 1   
     8     4    10 1   
     9     4    31 1   
    10     5    16 1   
    11     6    12 1   
    12     6    65 1   
    13     7    18 1   
    14     7    19 1   
    15     8    13 1   
    16     8    14 1   
    17     8    15 1   
    18     8    32 1   
    19     8    67 1   
    20     9    10 1   
    21     9    33 1   
    22     9    34 1   
    23     9    66 1   
    24    10    11 1   
    25    10    35 1   
    26    11    12 1   
    27    11    36 1   
    28    12    16 1   
    29    12    37 1   
    30    13    38 1   
    31    13    39 1   
    32    13    40 1   
    33    14    41 1   
    34    14    42 1   
    35    14    43 1   
    36    15    44 1   
    37    15    45 1   
    38    15    46 1   
    39    17    18 1   
    40    17    47 1   
    41    17    48 1   
    42    18    49 1   
    43    18    50 1   
    44    19    20 1   
    45    19    24 1   
    46    20    21 1   
    47    20    25 1   
    48    21    22 1   
    49    21    54 1   
    50    22    23 1   
    51    22    26 1   
    52    23    24 1   
    53    23    55 1   
    54    24    27 1   
    55    25    56 1   
    56    25    57 1   
    57    25    58 1   
    58    26    59 1   
    59    26    60 1   
    60    26    61 1   
    61    27    62 1   
    62    27    63 1   
    63    27    64 1   
    64    32    67 1   
    65    33    66 1   
    66    51    65 1   
    67    52    65 1   
    68    53    65 1   
    69    66    67 1   
@<TRIPOS>SUBSTRUCTURE
     1 Y02         1 TEMP              0 ****  ****    0 ROOT
