@<TRIPOS>MOLECULE
molecule
   67    67     1     0     0
SMALL
bcc


@<TRIPOS>ATOM
      1 N            0.0000     0.0000     0.0000 ns         1 Y02      -0.585900
      2 O1           1.0200     2.7900    -4.3210 oh         1 Y02      -0.574800
      3 O2           0.4470     1.3680    -2.4170 oh         1 Y02      -0.573800
      4 O3           2.3760     0.2610    -4.1590 oh         1 Y02      -0.574800
      5 O4           1.9540     0.0000     1.0510 o          1 Y02      -0.594100
      6 O5           3.5010    -0.1160    -1.0470 os         1 Y02      -0.398600
      7 O6          -2.6010    -1.2220     0.3430 os         1 Y02      -0.350900
      8 C01          3.3010     2.8800    -7.7890 c3         1 Y02      -0.040800
      9 C04          2.4200     2.6750    -4.0570 c3         1 Y02       0.168300
     10 C05          2.6930     1.3670    -3.3110 c3         1 Y02       0.145100
     11 C06          1.8270     1.3080    -2.0510 c3         1 Y02       0.143100
     12 C07          2.1010     0.0010    -1.3050 c3         1 Y02       0.058100
     13 C08          4.7860     2.6320    -7.5150 c3         1 Y02      -0.079767
     14 C09          2.7580     1.7750    -8.6990 c3         1 Y02      -0.079767
     15 C10          3.1280     4.2360    -8.4760 c3         1 Y02      -0.079767
     16 C11          1.3480     0.0000     0.0000 c          1 Y02       0.639100
     17 C19         -0.7320     0.0000     1.2700 c3         1 Y02       0.116000
     18 C20         -2.2360    -0.0010     0.9900 c3         1 Y02       0.125400
     19 C22         -3.9120    -1.3830     0.0240 ca         1 Y02       0.095100
     20 C23         -4.3830    -0.9580    -1.2110 ca         1 Y02      -0.089300
     21 C24         -5.7160    -1.1230    -1.5330 ca         1 Y02      -0.125000
     22 C25         -6.5800    -1.7120    -0.6290 ca         1 Y02      -0.079300
     23 C26         -6.1130    -2.1360     0.6020 ca         1 Y02      -0.125000
     24 C27         -4.7800    -1.9790     0.9270 ca         1 Y02      -0.089300
     25 C28         -3.4430    -0.3160    -2.1970 c3         1 Y02      -0.044800
     26 C29         -8.0330    -1.8910    -0.9830 c3         1 Y02      -0.047800
     27 C30         -4.2700    -2.4420     2.2680 c3         1 Y02      -0.044800
     28 HN          -0.5010    -0.0010    -0.8670 hn         1 Y02       0.336500
     29 HO1          0.7680     3.6980    -4.2900 ho         1 Y02       0.389000
     30 HO2          0.0590     2.1460    -2.0530 ho         1 Y02       0.401000
     31 HO3          3.1730    -0.1520    -4.4470 ho         1 Y02       0.394000
     32 H02          1.4710     3.0370    -6.4840 ha         1 Y02       0.143000
     33 H03          4.2500     2.5180    -5.3620 ha         1 Y02       0.131000
     34 H04          2.7430     3.5110    -3.4490 h1         1 Y02       0.034700
     35 H05          3.7390     1.3210    -3.0340 h1         1 Y02       0.057700
     36 H06          2.0670     2.1470    -1.4090 h1         1 Y02       0.050700
     37 H07          1.7740    -0.8360    -1.9100 h1         1 Y02       0.083700
     38 H08          5.3350     2.6630    -8.4480 hc         1 Y02       0.035700
     39 H08A         5.1630     3.3980    -6.8480 hc         1 Y02       0.035700
     40 H08B         4.9100     1.6590    -7.0560 hc         1 Y02       0.035700
     41 H09          3.2730     1.8060    -9.6510 hc         1 Y02       0.035700
     42 H09A         1.6970     1.9260    -8.8570 hc         1 Y02       0.035700
     43 H09B         2.9200     0.8110    -8.2320 hc         1 Y02       0.035700
     44 H10          3.4980     5.0200    -7.8260 hc         1 Y02       0.035700
     45 H10A         2.0780     4.4040    -8.6840 hc         1 Y02       0.035700
     46 H10B         3.6860     4.2440    -9.4050 hc         1 Y02       0.035700
     47 H19         -0.4700    -0.8840     1.8380 h1         1 Y02       0.062200
     48 H19A        -0.4700     0.8850     1.8370 h1         1 Y02       0.062200
     49 H20         -2.4840     0.8360     0.3470 h1         1 Y02       0.036700
     50 H20A        -2.7780     0.0890     1.9240 h1         1 Y02       0.036700
     51 H21          4.5660    -1.0890    -2.5200 h1         1 Y02       0.033700
     52 H21A         3.3220    -2.0570    -1.7170 h1         1 Y02       0.033700
     53 H21B         4.8320    -1.6810    -0.8740 h1         1 Y02       0.033700
     54 H24         -6.0840    -0.7920    -2.4960 ha         1 Y02       0.134000
     55 H26         -6.7910    -2.5990     1.3080 ha         1 Y02       0.134000
     56 H28         -3.2140     0.6920    -1.8740 hc         1 Y02       0.046367
     57 H28A        -2.5290    -0.8940    -2.2540 hc         1 Y02       0.046367
     58 H28B        -3.9120    -0.2840    -3.1740 hc         1 Y02       0.046367
     59 H29         -8.4980    -2.5650    -0.2730 hc         1 Y02       0.043367
     60 H29A        -8.5340    -0.9310    -0.9500 hc         1 Y02       0.043367
     61 H29B        -8.1130    -2.3060    -1.9810 hc         1 Y02       0.043367
     62 H30         -3.3000    -2.9070     2.1450 hc         1 Y02       0.046367
     63 H30A        -4.1810    -1.5920     2.9340 hc         1 Y02       0.046367
     64 H30B        -4.9640    -3.1590     2.6890 hc         1 Y02       0.046367
     65 C21          4.0910    -1.3080    -1.5710 c3         1 Y02       0.128700
     66 C03          3.1790     2.6780    -5.3590 c2         1 Y02      -0.231200
     67 C02          2.5420     2.8760    -6.4870 c2         1 Y02      -0.126200
@<TRIPOS>BOND
     1     1    17 1
     2     1    16 1
     3     1    28 1
     4     2     9 1
     5     2    29 1
     6     3    11 1
     7     3    30 1
     8     4    10 1
     9     4    31 1
    10    16     5 2
    11    12     6 1
    12    65     6 1
    13    18     7 1
    14    19     7 1
    15    67     8 1
    16     8    13 1
    17     8    14 1
    18     8    15 1
    19    66    67 2
    20    67    32 1
    21     9    66 1
    22    66    33 1
    23    10     9 1
    24     9    34 1
    25    10    11 1
    26    10    35 1
    27    11    12 1
    28    11    36 1
    29    12    16 1
    30    12    37 1
    31    13    38 1
    32    13    39 1
    33    13    40 1
    34    14    41 1
    35    14    42 1
    36    14    43 1
    37    15    44 1
    38    15    45 1
    39    15    46 1
    40    18    17 1
    41    17    47 1
    42    17    48 1
    43    18    49 1
    44    18    50 1
    45    65    51 1
    46    65    52 1
    47    65    53 1
    48    24    19 ar
    49    19    20 ar
    50    21    20 ar
    51    20    25 1
    52    22    21 ar
    53    21    54 1
    54    23    22 ar
    55    26    22 1
    56    23    24 ar
    57    23    55 1
    58    27    24 1
    59    25    56 1
    60    25    57 1
    61    25    58 1
    62    26    59 1
    63    26    60 1
    64    26    61 1
    65    27    62 1
    66    27    63 1
    67    27    64 1
@<TRIPOS>SUBSTRUCTURE
     1 Y02         1 TEMP              0 ****  ****    0 ROOT
