@<TRIPOS>MOLECULE
molecule
   33    34     1     0     0
SMALL
bcc


@<TRIPOS>ATOM
      1 OAS          0.0000     0.0000     0.0000 o          1 Y03      -0.891500
      2 PAR          1.6100     0.0000     0.0000 p5         1 Y03       1.040000
      3 OAU          2.1030     0.0000     1.3960 o          1 Y03      -0.891500
      4 OAT          2.1480    -1.3140    -0.7580 o          1 Y03      -0.891500
      5 CAM          2.2140     1.4820    -0.8550 ca         1 Y03      -0.139500
      6 CAN          2.4440     2.6440    -0.1440 ca         1 Y03      -0.051000
      7 CAO          2.9040     3.7740    -0.7960 ca         1 Y03      -0.209000
      8 CAP          3.1360     3.7430    -2.1580 ca         1 Y03      -0.144000
      9 CAQ          2.9080     2.5830    -2.8730 ca         1 Y03      -0.276000
     10 CAL          2.4510     1.4470    -2.2210 ca         1 Y03       0.173100
     11 OAK          2.2260     0.3050    -2.9220 os         1 Y03      -0.208900
     12 CAA          2.4790     0.3440    -4.3280 c3         1 Y03       0.079400
     13 CAB          2.1750    -1.0010    -4.9320 c          1 Y03       0.628100
     14 OAD          1.7800    -1.9060    -4.2280 o          1 Y03      -0.466100
     15 NAC          2.3420    -1.2000    -6.2560 ns         1 Y03      -0.504100
     16 CAE          2.1530    -2.4750    -6.8010 ca         1 Y03       0.104600
     17 CAF          2.9480    -2.9040    -7.8550 ca         1 Y03      -0.144000
     18 CAG          2.7590    -4.1640    -8.3920 ca         1 Y03       0.050900
     19 Cl1          3.7520    -4.7020    -9.7110 cl         1 Y03      -0.121900
     20 CAH          1.7790    -4.9960    -7.8800 ca         1 Y03      -0.160000
     21 CAI          0.9870    -4.5710    -6.8280 ca         1 Y03       0.050900
     22 Cl2         -0.2410    -5.6180    -6.1890 cl         1 Y03      -0.121900
     23 CAJ          1.1740    -3.3140    -6.2850 ca         1 Y03      -0.144000
     24 H3           2.2630     2.6710     0.9230 ha         1 Y03       0.149000
     25 H4           3.0840     4.6840    -0.2370 ha         1 Y03       0.082000
     26 H5           3.4940     4.6300    -2.6660 ha         1 Y03       0.075000
     27 H6           3.0910     2.5590    -3.9400 ha         1 Y03       0.080000
     28 H7           3.5200     0.5900    -4.5010 h1         1 Y03       0.027700
     29 H8           1.8490     1.0970    -4.7870 h1         1 Y03       0.027700
     30 H9           2.5670    -0.4290    -6.8530 hn         1 Y03       0.311500
     31 H10          3.6800    -2.2340    -8.2890 ha         1 Y03       0.172500
     32 H11          1.6330    -5.9830    -8.3020 ha         1 Y03       0.140000
     33 H12          0.5540    -2.9810    -5.4610 ha         1 Y03       0.172500
@<TRIPOS>BOND
     1     3     2 1
     2    19    18 1
     3    11    12 1
     4    11    10 1
     5    12    13 1
     6     9    10 ar
     7     9     8 ar
     8    17    18 ar
     9    17    16 ar
    10    10     5 ar
    11    13    14 2
    12    13    15 1
    13     8     7 ar
    14     5     2 1
    15     5     6 ar
    16     2     1 1
    17     2     4 1
    18    18    20 ar
    19    15    16 1
    20     7     6 ar
    21    16    23 ar
    22    20    21 ar
    23    23    21 ar
    24    21    22 1
    25     6    24 1
    26     7    25 1
    27     8    26 1
    28     9    27 1
    29    12    28 1
    30    12    29 1
    31    15    30 1
    32    17    31 1
    33    20    32 1
    34    23    33 1
@<TRIPOS>SUBSTRUCTURE
     1 Y03         1 TEMP              0 ****  ****    0 ROOT
