@<TRIPOS>MOLECULE
Y03
   33    34     1     0     0
SMALL
bcc


@<TRIPOS>ATOM
      1 OAS          0.0000     0.0000     0.0000 o          1 Y03      -0.721167
      2 PAR          1.6100     0.0000     0.0000 p5         1 Y03       0.442000
      3 OAU          2.1030     0.0000     1.3960 o          1 Y03      -0.721167
      4 OAT          2.1480    -1.3140    -0.7580 o          1 Y03      -0.721167
      5 CAM          2.2140     1.4820    -0.8550 ca         1 Y03       0.026500
      6 CAN          2.4440     2.6440    -0.1440 ca         1 Y03      -0.035000
      7 CAO          2.9040     3.7740    -0.7960 ca         1 Y03      -0.206000
      8 CAP          3.1360     3.7430    -2.1580 ca         1 Y03      -0.142000
      9 CAQ          2.9080     2.5830    -2.8730 ca         1 Y03      -0.290000
     10 CAL          2.4510     1.4470    -2.2210 ca         1 Y03       0.169100
     11 OAK          2.2260     0.3050    -2.9220 os         1 Y03      -0.171900
     12 CAA          2.4790     0.3440    -4.3280 c3         1 Y03       0.125400
     13 CAB          2.1750    -1.0010    -4.9320 c          1 Y03       0.527100
     14 OAD          1.7800    -1.9060    -4.2280 o          1 Y03      -0.500100
     15 NAC          2.3420    -1.2000    -6.2560 ns         1 Y03      -0.088100
     16 CAE          2.1530    -2.4750    -6.8010 ca         1 Y03      -0.024400
     17 CAF          2.9480    -2.9040    -7.8550 ca         1 Y03      -0.131000
     18 CAG          2.7590    -4.1640    -8.3920 ca         1 Y03       0.001400
     19 Cl1          3.7520    -4.7020    -9.7110 cl         1 Y03      -0.053400
     20 CAH          1.7790    -4.9960    -7.8800 ca         1 Y03      -0.150000
     21 CAI          0.9870    -4.5710    -6.8280 ca         1 Y03       0.001400
     22 Cl2         -0.2410    -5.6180    -6.1890 cl         1 Y03      -0.053400
     23 CAJ          1.1740    -3.3140    -6.2850 ca         1 Y03      -0.131000
     24 H3           2.2630     2.6710     0.9230 ha         1 Y03       0.112000
     25 H4           3.0840     4.6840    -0.2370 ha         1 Y03       0.060000
     26 H5           3.4940     4.6300    -2.6660 ha         1 Y03       0.054000
     27 H6           3.0910     2.5590    -3.9400 ha         1 Y03       0.072000
     28 H7           3.5200     0.5900    -4.5010 h1         1 Y03      -0.009300
     29 H8           1.8490     1.0970    -4.7870 h1         1 Y03      -0.009300
     30 H9           2.5670    -0.4290    -6.8530 hn         1 Y03       0.159500
     31 H10          3.6800    -2.2340    -8.2890 ha         1 Y03       0.146500
     32 H11          1.6330    -5.9830    -8.3020 ha         1 Y03       0.113000
     33 H12          0.5540    -2.9810    -5.4610 ha         1 Y03       0.146500
@<TRIPOS>BOND
     1     1     2 1   
     2     2     3 1   
     3     2     4 1   
     4     2     5 1   
     5     5     6 ar  
     6     5    10 ar  
     7     6     7 ar  
     8     6    24 1   
     9     7     8 ar  
    10     7    25 1   
    11     8     9 ar  
    12     8    26 1   
    13     9    10 ar  
    14     9    27 1   
    15    10    11 1   
    16    11    12 1   
    17    12    13 1   
    18    12    28 1   
    19    12    29 1   
    20    13    14 2   
    21    13    15 1   
    22    15    16 1   
    23    15    30 1   
    24    16    17 ar  
    25    16    23 ar  
    26    17    18 ar  
    27    17    31 1   
    28    18    19 1   
    29    18    20 ar  
    30    20    21 ar  
    31    20    32 1   
    32    21    22 1   
    33    21    23 ar  
    34    23    33 1   
@<TRIPOS>SUBSTRUCTURE
     1 Y03         1 TEMP              0 ****  ****    0 ROOT
