@<TRIPOS>MOLECULE
molecule
   33    34     1     0     0
SMALL
bcc


@<TRIPOS>ATOM
      1 OAC          0.0000     0.0000     0.0000 o          1 Y04      -0.893500
      2 PAV          1.4800     0.0000     0.0000 p5         1 Y04       1.044000
      3 OAD          2.0170     0.0000     1.5180 o          1 Y04      -0.893500
      4 OAB          2.0170    -1.3140    -0.7600 o          1 Y04      -0.893500
      5 CAU          2.0850     1.4820    -0.8540 ca         1 Y04      -0.142500
      6 CAM          2.3150     1.4490    -2.2160 ca         1 Y04      -0.050000
      7 CAI          2.7770     2.5780    -2.8680 ca         1 Y04      -0.210000
      8 CAH          3.0080     3.7420    -2.1590 ca         1 Y04      -0.143000
      9 CAL          2.7790     3.7800    -0.7970 ca         1 Y04      -0.277000
     10 CAT          2.3110     2.6510    -0.1420 ca         1 Y04       0.173100
     11 OAP          2.0850     2.6850     1.1970 os         1 Y04      -0.209900
     12 CAN          2.3520     3.9190     1.8690 c3         1 Y04       0.078400
     13 CAQ          2.0470     3.7690     3.3370 c          1 Y04       0.631100
     14 OAA          1.6400     2.7090     3.7660 o          1 Y04      -0.477100
     15 NAO          2.2250     4.8100     4.1730 ns         1 Y04      -0.500100
     16 CAS          1.8530     4.7010     5.5170 ca         1 Y04       0.097600
     17 CAR          1.3400     5.8030     6.1900 ca         1 Y04      -0.022600
     18 Cl1          1.1590     7.3190     5.3640 cl         1 Y04      -0.140400
     19 CAJ          0.9740     5.6910     7.5180 ca         1 Y04      -0.119000
     20 CAF          1.1180     4.4840     8.1770 ca         1 Y04      -0.165000
     21 CAG          1.6270     3.3860     7.5100 ca         1 Y04      -0.110000
     22 CAK          1.9900     3.4890     6.1810 ca         1 Y04      -0.114000
     23 H3           2.1340     0.5370    -2.7730 ha         1 Y04       0.152000
     24 H4           2.9570     2.5500    -3.9360 ha         1 Y04       0.082000
     25 H5           3.3720     4.6240    -2.6720 ha         1 Y04       0.074000
     26 H6           2.9590     4.6930    -0.2430 ha         1 Y04       0.081000
     27 H7           3.3950     4.1810     1.7420 h1         1 Y04       0.028700
     28 H8           1.7300     4.7000     1.4490 h1         1 Y04       0.028700
     29 H9           2.6400     5.6570     3.8360 hn         1 Y04       0.316500
     30 H10          0.5740     6.5490     8.0440 ha         1 Y04       0.124000
     31 H11          0.8320     4.3990     9.2190 ha         1 Y04       0.117000
     32 H12          1.7370     2.4410     8.0280 ha         1 Y04       0.133000
     33 H13          2.3890     2.6280     5.6590 ha         1 Y04       0.200000
@<TRIPOS>BOND
     1     1     2 1
     2    22    21 ar
     3    22    16 ar
     4    11    12 1
     5    11    10 1
     6    21    20 ar
     7    12    13 1
     8     9    10 ar
     9     9     8 ar
    10    14    13 2
    11    10     5 ar
    12    13    15 1
    13     8     7 ar
    14     5     2 1
    15     5     6 ar
    16     2     4 1
    17     2     3 1
    18     7     6 ar
    19    15    16 1
    20    16    17 ar
    21    20    19 ar
    22    17    19 ar
    23    17    18 1
    24     6    23 1
    25     7    24 1
    26     8    25 1
    27     9    26 1
    28    12    27 1
    29    12    28 1
    30    15    29 1
    31    19    30 1
    32    20    31 1
    33    21    32 1
    34    22    33 1
@<TRIPOS>SUBSTRUCTURE
     1 Y04         1 TEMP              0 ****  ****    0 ROOT
