@<TRIPOS>MOLECULE
Y06
   33    34     1     0     0
SMALL
bcc


@<TRIPOS>ATOM
      1 OAS          0.0000     0.0000     0.0000 o          1 Y06      -0.721500
      2 PAR          1.6100     0.0000     0.0000 p5         1 Y06       0.442000
      3 OAU          2.1030     0.0000     1.3950 o          1 Y06      -0.721500
      4 OAT          2.1460    -1.3160    -0.7580 o          1 Y06      -0.721500
      5 CAM          2.2150     1.4800    -0.8560 ca         1 Y06       0.027500
      6 CAN          2.4460     2.6430    -0.1470 ca         1 Y06      -0.036000
      7 CAO          2.9080     3.7720    -0.7990 ca         1 Y06      -0.206000
      8 CAP          3.1390     3.7400    -2.1610 ca         1 Y06      -0.142000
      9 CAQ          2.9090     2.5790    -2.8750 ca         1 Y06      -0.290000
     10 CAL          2.4530     1.4440    -2.2220 ca         1 Y06       0.169100
     11 OAK          2.2270     0.3010    -2.9220 os         1 Y06      -0.170900
     12 CAA          2.4800     0.3400    -4.3280 c3         1 Y06       0.125400
     13 CAB          2.1750    -1.0060    -4.9320 c          1 Y06       0.527100
     14 OAD          1.7790    -1.9110    -4.2270 o          1 Y06      -0.505100
     15 NAC          2.3420    -1.2050    -6.2540 ns         1 Y06      -0.087100
     16 CAE          2.1520    -2.4810    -6.7980 ca         1 Y06      -0.036400
     17 CAF          2.9470    -2.9120    -7.8530 ca         1 Y06      -0.159000
     18 CAG          2.7570    -4.1720    -8.3890 ca         1 Y06      -0.007600
     19 Cl1          3.7490    -4.7120    -9.7060 cl         1 Y06      -0.084400
     20 CAH          1.7770    -5.0030    -7.8750 ca         1 Y06      -0.148000
     21 CAI          0.9850    -4.5750    -6.8250 ca         1 Y06      -0.071000
     22 CAJ          1.1730    -3.3190    -6.2830 ca         1 Y06      -0.100000
     23 H3           2.2650     2.6710     0.9210 ha         1 Y06       0.112000
     24 H4           3.0880     4.6830    -0.2410 ha         1 Y06       0.060000
     25 H5           3.4980     4.6260    -2.6690 ha         1 Y06       0.054000
     26 H6           3.0930     2.5540    -3.9430 ha         1 Y06       0.072000
     27 H7           1.8500     1.0930    -4.7880 h1         1 Y06      -0.009800
     28 H8           3.5210     0.5860    -4.5010 h1         1 Y06      -0.009800
     29 H9           2.5630    -0.4340    -6.8520 hn         1 Y06       0.157500
     30 H10          3.6840    -2.2460    -8.2830 ha         1 Y06       0.109000
     31 H11          1.6280    -5.9900    -8.2970 ha         1 Y06       0.101000
     32 H12          0.2190    -5.2280    -6.4230 ha         1 Y06       0.103000
     33 H13          0.5520    -2.9850    -5.4610 ha         1 Y06       0.169000
@<TRIPOS>BOND
     1     1     2 1   
     2     2     3 1   
     3     2     4 1   
     4     2     5 1   
     5     5     6 ar  
     6     5    10 ar  
     7     6     7 ar  
     8     6    23 1   
     9     7     8 ar  
    10     7    24 1   
    11     8     9 ar  
    12     8    25 1   
    13     9    10 ar  
    14     9    26 1   
    15    10    11 1   
    16    11    12 1   
    17    12    13 1   
    18    12    27 1   
    19    12    28 1   
    20    13    14 2   
    21    13    15 1   
    22    15    16 1   
    23    15    29 1   
    24    16    17 ar  
    25    16    22 ar  
    26    17    18 ar  
    27    17    30 1   
    28    18    19 1   
    29    18    20 ar  
    30    20    21 ar  
    31    20    31 1   
    32    21    22 ar  
    33    21    32 1   
    34    22    33 1   
@<TRIPOS>SUBSTRUCTURE
     1 Y06         1 TEMP              0 ****  ****    0 ROOT
