@<TRIPOS>MOLECULE
molecule
   33    34     1     0     0
SMALL
bcc


@<TRIPOS>ATOM
      1 OAS          0.0000     0.0000     0.0000 o          1 Y06      -0.892167
      2 PAR          1.6100     0.0000     0.0000 p5         1 Y06       1.041000
      3 OAU          2.1030     0.0000     1.3950 o          1 Y06      -0.892167
      4 OAT          2.1460    -1.3160    -0.7580 o          1 Y06      -0.892167
      5 CAM          2.2150     1.4800    -0.8560 ca         1 Y06      -0.139500
      6 CAN          2.4460     2.6430    -0.1470 ca         1 Y06      -0.052000
      7 CAO          2.9080     3.7720    -0.7990 ca         1 Y06      -0.209000
      8 CAP          3.1390     3.7400    -2.1610 ca         1 Y06      -0.144000
      9 CAQ          2.9090     2.5790    -2.8750 ca         1 Y06      -0.276000
     10 CAL          2.4530     1.4440    -2.2220 ca         1 Y06       0.174100
     11 OAK          2.2270     0.3010    -2.9220 os         1 Y06      -0.208900
     12 CAA          2.4800     0.3400    -4.3280 c3         1 Y06       0.078400
     13 CAB          2.1750    -1.0060    -4.9320 c          1 Y06       0.629100
     14 OAD          1.7790    -1.9110    -4.2270 o          1 Y06      -0.472100
     15 NAC          2.3420    -1.2050    -6.2540 ns         1 Y06      -0.505100
     16 CAE          2.1520    -2.4810    -6.7980 ca         1 Y06       0.094600
     17 CAF          2.9470    -2.9120    -7.8530 ca         1 Y06      -0.174000
     18 CAG          2.7570    -4.1720    -8.3890 ca         1 Y06       0.039400
     19 Cl1          3.7490    -4.7120    -9.7060 cl         1 Y06      -0.152400
     20 CAH          1.7770    -5.0030    -7.8750 ca         1 Y06      -0.163000
     21 CAI          0.9850    -4.5750    -6.8250 ca         1 Y06      -0.106000
     22 CAJ          1.1730    -3.3190    -6.2830 ca         1 Y06      -0.117000
     23 H3           2.2650     2.6710     0.9210 ha         1 Y06       0.148000
     24 H4           3.0880     4.6830    -0.2410 ha         1 Y06       0.082000
     25 H5           3.4980     4.6260    -2.6690 ha         1 Y06       0.074000
     26 H6           3.0930     2.5540    -3.9430 ha         1 Y06       0.081000
     27 H7           1.8500     1.0930    -4.7880 h1         1 Y06       0.027200
     28 H8           3.5210     0.5860    -4.5010 h1         1 Y06       0.027200
     29 H9           2.5630    -0.4340    -6.8520 hn         1 Y06       0.309500
     30 H10          3.6840    -2.2460    -8.2830 ha         1 Y06       0.133000
     31 H11          1.6280    -5.9900    -8.2970 ha         1 Y06       0.125000
     32 H12          0.2190    -5.2280    -6.4230 ha         1 Y06       0.136000
     33 H13          0.5520    -2.9850    -5.4610 ha         1 Y06       0.194000
@<TRIPOS>BOND
     1     3     2 1
     2    19    18 1
     3    11    12 1
     4    11    10 1
     5    12    13 1
     6    17    18 ar
     7    17    16 ar
     8     9    10 ar
     9     9     8 ar
    10    10     5 ar
    11    14    13 2
    12    13    15 1
    13     8     7 ar
    14    18    20 ar
    15     5     2 1
    16     5     6 ar
    17     2     1 1
    18     2     4 1
    19    15    16 1
    20     7     6 ar
    21    16    22 ar
    22    20    21 ar
    23    22    21 ar
    24     6    23 1
    25     7    24 1
    26     8    25 1
    27     9    26 1
    28    12    27 1
    29    12    28 1
    30    15    29 1
    31    17    30 1
    32    20    31 1
    33    21    32 1
    34    22    33 1
@<TRIPOS>SUBSTRUCTURE
     1 Y06         1 TEMP              0 ****  ****    0 ROOT
