@<TRIPOS>MOLECULE
molecule
   36    37     1     0     0
SMALL
bcc


@<TRIPOS>ATOM
      1 OAI          0.0000     0.0000     0.0000 o          1 Y07      -0.891833
      2 PAG          1.4810     0.0000     0.0000 p5         1 Y07       1.041000
      3 OAJ          2.0170     0.0000     1.5180 o          1 Y07      -0.891833
      4 OAH          2.0170    -1.3150    -0.7590 o          1 Y07      -0.891833
      5 CAC          2.0850     1.4810    -0.8560 ca         1 Y07      -0.139500
      6 CAD          2.3160     2.6430    -0.1460 ca         1 Y07      -0.049000
      7 CAE          2.7770     3.7720    -0.7980 ca         1 Y07      -0.208000
      8 CAF          3.0090     3.7410    -2.1600 ca         1 Y07      -0.144000
      9 CAA          2.7780     2.5810    -2.8750 ca         1 Y07      -0.276000
     10 CAB          2.3220     1.4450    -2.2230 ca         1 Y07       0.171100
     11 OAK          2.0950     0.3020    -2.9230 os         1 Y07      -0.209900
     12 CAL          2.3490     0.3420    -4.3280 c3         1 Y07       0.079400
     13 CAM          2.0440    -1.0040    -4.9320 c          1 Y07       0.628100
     14 OAO          1.6480    -1.9090    -4.2290 o          1 Y07      -0.469100
     15 NAN          2.2100    -1.2030    -6.2550 ns         1 Y07      -0.494100
     16 CAP          2.0390    -2.4820    -6.7970 ca         1 Y07       0.098600
     17 CAU          2.2090    -3.6050    -5.9990 ca         1 Y07      -0.075000
     18 CAQ          2.0400    -4.8650    -6.5370 ca         1 Y07      -0.158300
     19 CAW          2.2250    -6.0850    -5.6710 c3         1 Y07       0.675200
     20 FAY          3.1640    -5.8090    -4.6710 f          1 Y07      -0.222633
     21 FAZ          1.0030    -6.4270    -5.0810 f          1 Y07      -0.222633
     22 FAX          2.6770    -7.1500    -6.4550 f          1 Y07      -0.222633
     23 CAR          1.6990    -5.0100    -7.8700 ca         1 Y07      -0.127000
     24 CAS          1.5270    -3.8950    -8.6680 ca         1 Y07      -0.119000
     25 CAT          1.6910    -2.6300    -8.1350 ca         1 Y07      -0.011600
     26 Cl1          1.4700    -1.2290    -9.1350 cl         1 Y07      -0.129400
     27 H3           2.1360     2.6700     0.9220 ha         1 Y07       0.153000
     28 H4           2.9590     4.6820    -0.2390 ha         1 Y07       0.083000
     29 H5           3.3680     4.6280    -2.6680 ha         1 Y07       0.075000
     30 H6           2.9620     2.5560    -3.9420 ha         1 Y07       0.080000
     31 H7           3.3900     0.5870    -4.5000 h1         1 Y07       0.029700
     32 H8           1.7200     1.0950    -4.7880 h1         1 Y07       0.029700
     33 H9           2.4840    -0.4420    -6.8450 hn         1 Y07       0.321500
     34 H10          2.5340    -3.4940    -4.9720 ha         1 Y07       0.220000
     35 H11          1.5680    -6.0000    -8.2890 ha         1 Y07       0.135000
     36 H12          1.2580    -4.0120    -9.7110 ha         1 Y07       0.133000
@<TRIPOS>BOND
     1     1     2 1
     2    26    25 1
     3    11    10 1
     4    11    12 1
     5     9    10 ar
     6     9     8 ar
     7    10     5 ar
     8     8     7 ar
     9     5     2 1
    10     5     6 ar
    11     2     3 1
    12     2     4 1
    13     7     6 ar
    14    12    13 1
    15    13    14 2
    16    13    15 1
    17    25    16 ar
    18    25    24 ar
    19    15    16 1
    20    16    17 ar
    21    24    23 ar
    22    17    18 ar
    23    23    18 ar
    24    18    19 1
    25    19    21 1
    26    19    22 1
    27    19    20 1
    28     6    27 1
    29     7    28 1
    30     8    29 1
    31     9    30 1
    32    12    31 1
    33    12    32 1
    34    15    33 1
    35    17    34 1
    36    23    35 1
    37    24    36 1
@<TRIPOS>SUBSTRUCTURE
     1 Y07         1 TEMP              0 ****  ****    0 ROOT
