@<TRIPOS>MOLECULE
Y07
   36    37     1     0     0
SMALL
bcc


@<TRIPOS>ATOM
      1 OAI          0.0000     0.0000     0.0000 o          1 Y07      -0.703833
      2 PAG          1.4810     0.0000     0.0000 p5         1 Y07       0.459000
      3 OAJ          2.0170     0.0000     1.5180 o          1 Y07      -0.703833
      4 OAH          2.0170    -1.3150    -0.7590 o          1 Y07      -0.703833
      5 CAC          2.0850     1.4810    -0.8560 ca         1 Y07       0.015500
      6 CAD          2.3160     2.6430    -0.1460 ca         1 Y07      -0.030000
      7 CAE          2.7770     3.7720    -0.7980 ca         1 Y07      -0.206000
      8 CAF          3.0090     3.7410    -2.1600 ca         1 Y07      -0.136000
      9 CAA          2.7780     2.5810    -2.8750 ca         1 Y07      -0.288000
     10 CAB          2.3220     1.4450    -2.2230 ca         1 Y07       0.168100
     11 OAK          2.0950     0.3020    -2.9230 os         1 Y07      -0.177900
     12 CAL          2.3490     0.3420    -4.3280 c3         1 Y07       0.126400
     13 CAM          2.0440    -1.0040    -4.9320 c          1 Y07       0.525100
     14 OAO          1.6480    -1.9090    -4.2290 o          1 Y07      -0.505100
     15 NAN          2.2100    -1.2030    -6.2550 ns         1 Y07      -0.072100
     16 CAP          2.0390    -2.4820    -6.7970 ca         1 Y07      -0.048400
     17 CAU          2.2090    -3.6050    -5.9990 ca         1 Y07      -0.046000
     18 CAQ          2.0400    -4.8650    -6.5370 ca         1 Y07      -0.200300
     19 CAW          2.2250    -6.0850    -5.6710 c3         1 Y07       0.642200
     20 FAY          3.1640    -5.8090    -4.6710 f          1 Y07      -0.211300
     21 FAZ          1.0030    -6.4270    -5.0810 f          1 Y07      -0.211300
     22 FAX          2.6770    -7.1500    -6.4550 f          1 Y07      -0.211300
     23 CAR          1.6990    -5.0100    -7.8700 ca         1 Y07      -0.100000
     24 CAS          1.5270    -3.8950    -8.6680 ca         1 Y07      -0.094000
     25 CAT          1.6910    -2.6300    -8.1350 ca         1 Y07      -0.083600
     26 Cl1          1.4700    -1.2290    -9.1350 cl         1 Y07      -0.058400
     27 H3           2.1360     2.6700     0.9220 ha         1 Y07       0.116000
     28 H4           2.9590     4.6820    -0.2390 ha         1 Y07       0.062000
     29 H5           3.3680     4.6280    -2.6680 ha         1 Y07       0.056000
     30 H6           2.9620     2.5560    -3.9420 ha         1 Y07       0.074000
     31 H7           3.3900     0.5870    -4.5000 h1         1 Y07      -0.007300
     32 H8           1.7200     1.0950    -4.7880 h1         1 Y07      -0.007300
     33 H9           2.4840    -0.4420    -6.8450 hn         1 Y07       0.166500
     34 H10          2.5340    -3.4940    -4.9720 ha         1 Y07       0.189000
     35 H11          1.5680    -6.0000    -8.2890 ha         1 Y07       0.105000
     36 H12          1.2580    -4.0120    -9.7110 ha         1 Y07       0.101000
@<TRIPOS>BOND
     1     1     2 1   
     2     2     3 1   
     3     2     4 1   
     4     2     5 1   
     5     5     6 ar  
     6     5    10 ar  
     7     6     7 ar  
     8     6    27 1   
     9     7     8 ar  
    10     7    28 1   
    11     8     9 ar  
    12     8    29 1   
    13     9    10 ar  
    14     9    30 1   
    15    10    11 1   
    16    11    12 1   
    17    12    13 1   
    18    12    31 1   
    19    12    32 1   
    20    13    14 2   
    21    13    15 1   
    22    15    16 1   
    23    15    33 1   
    24    16    17 ar  
    25    16    25 ar  
    26    17    18 ar  
    27    17    34 1   
    28    18    19 1   
    29    18    23 ar  
    30    19    20 1   
    31    19    21 1   
    32    19    22 1   
    33    23    24 ar  
    34    23    35 1   
    35    24    25 ar  
    36    24    36 1   
    37    25    26 1   
@<TRIPOS>SUBSTRUCTURE
     1 Y07         1 TEMP              0 ****  ****    0 ROOT
