@<TRIPOS>MOLECULE
Y08
   68    71     1     0     0
SMALL
bcc


@<TRIPOS>ATOM
      1 N1           0.0000     0.0000     0.0000 ns         1 Y08      -0.021000
      2 O1           1.0230     2.7900    -4.3210 oh         1 Y08      -0.285000
      3 N2          -4.4410     0.0240     2.0380 n          1 Y08      -0.007000
      4 O2           0.4480     1.3690    -2.4180 oh         1 Y08      -0.293000
      5 O3           2.3770     0.2610    -4.1580 oh         1 Y08      -0.281000
      6 O4           1.9540    -0.0010     1.0500 o          1 Y08      -0.387000
      7 O5          -4.9140    -1.8820     3.0690 o          1 Y08      -0.410000
      8 O6           3.5020    -0.1170    -1.0460 os         1 Y08      -0.234000
      9 C01          3.3040     2.8800    -7.7890 DU         1 Y08       0.065000
     10 C04          2.4220     2.6750    -4.0560 DU         1 Y08       0.145000
     11 C05          2.6940     1.3670    -3.3110 c3         1 Y08       0.020000
     12 C06          1.8290     1.3090    -2.0510 c3         1 Y08       0.064000
     13 C07          2.1010     0.0010    -1.3060 c3         1 Y08       0.027000
     14 C08          2.7620     1.7760    -8.6980 c3         1 Y08      -0.131667
     15 C09          3.1330     4.2370    -8.4750 c3         1 Y08      -0.131667
     16 C10          4.7890     2.6320    -7.5150 c3         1 Y08      -0.131667
     17 C11          1.3470     0.0000     0.0000 c2         1 Y08       0.194000
     18 C12         -0.7320     0.0000     1.2690 c3         1 Y08      -0.059000
     19 C13         -2.2370     0.0070     0.9880 c3         1 Y08      -0.123000
     20 C14         -2.6220     1.3180     0.3000 c3         1 Y08      -0.110000
     21 C15         -4.1200     1.3130    -0.0100 c3         1 Y08      -0.117000
     22 C16         -4.9080     1.2050     1.3000 c3         1 Y08      -0.075000
     23 C17         -3.0030    -0.1150     2.3090 c3         1 Y08      -0.059000
     24 C19         -6.7850    -0.7510     2.1790 cx         1 Y08      -0.211000
     25 C20         -7.7240    -1.8480     2.6850 cx         1 Y08      -0.129000
     26 C21         -7.4240    -1.7260     1.1890 cx         1 Y08      -0.129000
     27 HN1         -0.4990    -0.0710    -0.8650 hn         1 Y08       0.111000
     28 HO1          0.7780     3.7010    -4.3290 ho         1 Y08       0.192000
     29 HO2          0.0890     2.1990    -2.1530 ho         1 Y08       0.192000
     30 HO3          3.1670    -0.2070    -4.3720 ho         1 Y08       0.187000
     31 H02          2.8810     1.9840    -7.0010 DU         1 Y08       0.043000
     32 H03          2.5860     1.8480    -5.0000 DU         1 Y08       0.104000
     33 H04          2.7450     3.5120    -3.4480 ha         1 Y08       0.021000
     34 H05          3.7400     1.3210    -3.0330 h1         1 Y08       0.077000
     35 H06          2.0690     2.1480    -1.4090 h1         1 Y08       0.061000
     36 H07          1.7750    -0.8360    -1.9120 h1         1 Y08       0.086000
     37 H08          1.6850     1.7210    -8.5960 hc         1 Y08       0.050778
     38 H08A         3.0160     1.9980    -9.7270 hc         1 Y08       0.050778
     39 H08B         3.2000     0.8270    -8.4140 hc         1 Y08       0.050778
     40 H09          3.6800     4.2390    -9.4110 hc         1 Y08       0.050778
     41 H09A         3.5170     5.0190    -7.8310 hc         1 Y08       0.050778
     42 H09B         2.0820     4.4130    -8.6700 hc         1 Y08       0.050778
     43 H10          5.3430     2.6940    -8.4430 hc         1 Y08       0.050778
     44 H10A         4.9170     1.6470    -7.0830 hc         1 Y08       0.050778
     45 H10B         5.1590     3.3800    -6.8230 hc         1 Y08       0.050778
     46 H12         -0.4750    -0.8870     1.8350 h1         1 Y08       0.068500
     47 H12A        -0.4670     0.8820     1.8390 h1         1 Y08       0.068500
     48 H13         -2.4930    -0.8260     0.3450 hc         1 Y08       0.080000
     49 H14         -2.0640     1.4170    -0.6230 hc         1 Y08       0.060000
     50 H14A        -2.3930     2.1490     0.9560 hc         1 Y08       0.060000
     51 H15         -4.3860     2.2330    -0.5160 hc         1 Y08       0.062000
     52 H15A        -4.3540     0.4650    -0.6420 hc         1 Y08       0.062000
     53 H16         -5.9640     1.1000     1.0800 h1         1 Y08       0.066000
     54 H16A        -4.7420     2.0940     1.8970 h1         1 Y08       0.066000
     55 H17         -2.8100    -1.0860     2.7510 h1         1 Y08       0.079500
     56 H17A        -2.6850     0.6680     2.9870 h1         1 Y08       0.079500
     57 H19         -7.2110     0.2440     2.1740 hc         1 Y08       0.106000
     58 H20         -7.2450    -2.6760     3.1920 hc         1 Y08       0.090750
     59 H20A        -8.7080    -1.5140     2.9930 hc         1 Y08       0.090750
     60 H21         -6.7620    -2.4810     0.7820 hc         1 Y08       0.090750
     61 H21A        -8.2240    -1.3190     0.5830 hc         1 Y08       0.090750
     62 H22          4.5260    -1.8830    -0.7600 h1         1 Y08       0.031333
     63 H22A         3.3310    -1.9010    -2.0650 h1         1 Y08       0.031333
     64 H22B         4.8650    -1.0460    -2.2820 h1         1 Y08       0.031333
     65 C18         -5.3130    -0.9110     2.4610 c2         1 Y08       0.275000
     66 C22          4.0920    -1.3090    -1.5700 c3         1 Y08       0.052000
     67 C03          3.1810     2.6790    -5.3590 c2         1 Y08      -0.245000
     68 C02          2.5460     2.8760    -6.4860 c2         1 Y08      -0.120000
@<TRIPOS>BOND
     1     1    17 1   
     2     1    18 1   
     3     1    27 1   
     4     2    10 1   
     5     2    28 1   
     6     3    22 1   
     7     3    23 1   
     8     3    65 1   
     9     4    12 1   
    10     4    29 1   
    11     5    11 1   
    12     5    30 1   
    13     6    17 1   
    14     7    65 1   
    15     8    13 1   
    16     8    66 1   
    17     9    14 1   
    18     9    15 1   
    19     9    16 1   
    20     9    31 1   
    21     9    68 1   
    22    10    11 1   
    23    10    32 1   
    24    10    33 1   
    25    10    67 1   
    26    11    12 1   
    27    11    34 1   
    28    12    13 1   
    29    12    35 1   
    30    13    17 1   
    31    13    36 1   
    32    14    37 1   
    33    14    38 1   
    34    14    39 1   
    35    15    40 1   
    36    15    41 1   
    37    15    42 1   
    38    16    43 1   
    39    16    44 1   
    40    16    45 1   
    41    18    19 1   
    42    18    46 1   
    43    18    47 1   
    44    19    20 1   
    45    19    23 1   
    46    19    48 1   
    47    20    21 1   
    48    20    49 1   
    49    20    50 1   
    50    21    22 1   
    51    21    51 1   
    52    21    52 1   
    53    22    53 1   
    54    22    54 1   
    55    23    55 1   
    56    23    56 1   
    57    24    25 1   
    58    24    26 1   
    59    24    57 1   
    60    24    65 1   
    61    25    26 1   
    62    25    58 1   
    63    25    59 1   
    64    26    60 1   
    65    26    61 1   
    66    31    68 1   
    67    32    67 1   
    68    62    66 1   
    69    63    66 1   
    70    64    66 1   
    71    67    68 1   
@<TRIPOS>SUBSTRUCTURE
     1 Y08         1 TEMP              0 ****  ****    0 ROOT
