@<TRIPOS>MOLECULE
molecule
   68    69     1     0     0
SMALL
bcc


@<TRIPOS>ATOM
      1 N1           0.0000     0.0000     0.0000 ns         1 Y08      -0.587900
      2 O1           1.0230     2.7900    -4.3210 oh         1 Y08      -0.577800
      3 N2          -4.4410     0.0240     2.0380 n          1 Y08      -0.486800
      4 O2           0.4480     1.3690    -2.4180 oh         1 Y08      -0.579800
      5 O3           2.3770     0.2610    -4.1580 oh         1 Y08      -0.574800
      6 O4           1.9540    -0.0010     1.0500 o          1 Y08      -0.589100
      7 O5          -4.9140    -1.8820     3.0690 o          1 Y08      -0.611100
      8 O6           3.5020    -0.1170    -1.0460 os         1 Y08      -0.397600
      9 C01          3.3040     2.8800    -7.7890 c3         1 Y08      -0.040800
     10 C04          2.4220     2.6750    -4.0560 c3         1 Y08       0.168300
     11 C05          2.6940     1.3670    -3.3110 c3         1 Y08       0.139100
     12 C06          1.8290     1.3090    -2.0510 c3         1 Y08       0.142100
     13 C07          2.1010     0.0010    -1.3060 c3         1 Y08       0.063100
     14 C08          2.7620     1.7760    -8.6980 c3         1 Y08      -0.079767
     15 C09          3.1330     4.2370    -8.4750 c3         1 Y08      -0.079767
     16 C10          4.7890     2.6320    -7.5150 c3         1 Y08      -0.079767
     17 C11          1.3470     0.0000     0.0000 c          1 Y08       0.639100
     18 C12         -0.7320     0.0000     1.2690 c3         1 Y08       0.117000
     19 C13         -2.2370     0.0070     0.9880 c3         1 Y08      -0.109700
     20 C14         -2.6220     1.3180     0.3000 c3         1 Y08      -0.079400
     21 C15         -4.1200     1.3130    -0.0100 c3         1 Y08      -0.099400
     22 C16         -4.9080     1.2050     1.3000 c3         1 Y08       0.101000
     23 C17         -3.0030    -0.1150     2.3090 c3         1 Y08       0.115000
     24 C19         -6.7850    -0.7510     2.1790 cx         1 Y08      -0.235700
     25 C20         -7.7240    -1.8480     2.6850 cx         1 Y08      -0.110400
     26 C21         -7.4240    -1.7260     1.1890 cx         1 Y08      -0.110400
     27 HN1         -0.5000    -0.0530    -0.8650 hn         1 Y08       0.331500
     28 HO1          0.7630     3.6940    -4.2510 ho         1 Y08       0.389000
     29 HO2          0.0960     2.2110    -2.1810 ho         1 Y08       0.404000
     30 HO3          3.1730    -0.1600    -4.4370 ho         1 Y08       0.394000
     31 H02          1.4740     3.0370    -6.4830 ha         1 Y08       0.143000
     32 H03          4.2520     2.5180    -5.3620 ha         1 Y08       0.132000
     33 H04          2.7450     3.5120    -3.4480 h1         1 Y08       0.035700
     34 H05          3.7400     1.3210    -3.0330 h1         1 Y08       0.056700
     35 H06          2.0690     2.1480    -1.4090 h1         1 Y08       0.051700
     36 H07          1.7750    -0.8360    -1.9120 h1         1 Y08       0.080700
     37 H08          2.9070     0.8130    -8.2230 hc         1 Y08       0.036033
     38 H08A         1.7050     1.9370    -8.8700 hc         1 Y08       0.036033
     39 H08B         3.2890     1.7960    -9.6440 hc         1 Y08       0.036033
     40 H09          2.1080     4.3470    -8.8060 hc         1 Y08       0.036033
     41 H09A         3.7970     4.2950    -9.3300 hc         1 Y08       0.036033
     42 H09B         3.3750     5.0280    -7.7760 hc         1 Y08       0.036033
     43 H10          4.9100     1.6770    -7.0180 hc         1 Y08       0.036033
     44 H10A         5.1760     3.4210    -6.8800 hc         1 Y08       0.036033
     45 H10B         5.3330     2.6230    -8.4520 hc         1 Y08       0.036033
     46 H12         -0.4670     0.8820     1.8390 h1         1 Y08       0.054700
     47 H12A        -0.4750    -0.8870     1.8350 h1         1 Y08       0.054700
     48 H13         -2.4930    -0.8260     0.3450 hc         1 Y08       0.066700
     49 H14         -2.3930     2.1490     0.9560 hc         1 Y08       0.046200
     50 H14A        -2.0640     1.4170    -0.6230 hc         1 Y08       0.046200
     51 H15         -4.3860     2.2330    -0.5160 hc         1 Y08       0.051200
     52 H15A        -4.3540     0.4650    -0.6420 hc         1 Y08       0.051200
     53 H16         -4.7420     2.0940     1.8970 h1         1 Y08       0.051200
     54 H16A        -5.9640     1.1000     1.0800 h1         1 Y08       0.051200
     55 H17         -2.8100    -1.0860     2.7510 h1         1 Y08       0.066200
     56 H17A        -2.6850     0.6680     2.9870 h1         1 Y08       0.066200
     57 H19         -7.2110     0.2440     2.1740 hc         1 Y08       0.086700
     58 H20         -7.2450    -2.6760     3.1920 hc         1 Y08       0.083950
     59 H20A        -8.7080    -1.5150     2.9920 hc         1 Y08       0.083950
     60 H21         -8.2240    -1.3190     0.5830 hc         1 Y08       0.083950
     61 H21A        -6.7620    -2.4810     0.7820 hc         1 Y08       0.083950
     62 H22          4.4540    -1.9210    -0.7530 h1         1 Y08       0.035700
     63 H22A         4.9180    -1.0470    -2.2200 h1         1 Y08       0.035700
     64 H22B         3.3500    -1.8610    -2.1340 h1         1 Y08       0.035700
     65 C18         -5.3130    -0.9110     2.4610 c          1 Y08       0.699100
     66 C22          4.0920    -1.3090    -1.5700 c3         1 Y08       0.123700
     67 C03          3.1810     2.6790    -5.3590 c2         1 Y08      -0.230200
     68 C02          2.5460     2.8760    -6.4860 c2         1 Y08      -0.125200
@<TRIPOS>BOND
     1    17     1 1
     2     1    18 1
     3     1    27 1
     4     2    10 1
     5     2    28 1
     6    23     3 1
     7    65     3 1
     8     3    22 1
     9     4    12 1
    10     4    29 1
    11     5    11 1
    12     5    30 1
    13    17     6 2
    14     7    65 2
    15    66     8 1
    16     8    13 1
    17    68     9 1
    18    15     9 1
    19     9    16 1
    20     9    14 1
    21    67    68 2
    22    68    31 1
    23    10    67 1
    24    67    32 1
    25    11    10 1
    26    10    33 1
    27    11    12 1
    28    11    34 1
    29    12    13 1
    30    12    35 1
    31    13    17 1
    32    13    36 1
    33    14    37 1
    34    14    38 1
    35    14    39 1
    36    15    40 1
    37    15    41 1
    38    15    42 1
    39    16    43 1
    40    16    44 1
    41    16    45 1
    42    18    19 1
    43    18    46 1
    44    18    47 1
    45    19    20 1
    46    19    23 1
    47    19    48 1
    48    20    21 1
    49    20    49 1
    50    20    50 1
    51    21    22 1
    52    21    51 1
    53    21    52 1
    54    22    53 1
    55    22    54 1
    56    23    55 1
    57    23    56 1
    58    65    24 1
    59    25    24 1
    60    26    24 1
    61    24    57 1
    62    25    26 1
    63    25    58 1
    64    25    59 1
    65    26    60 1
    66    26    61 1
    67    66    62 1
    68    66    63 1
    69    66    64 1
@<TRIPOS>SUBSTRUCTURE
     1 Y08         1 TEMP              0 ****  ****    0 ROOT
