@<TRIPOS>MOLECULE
molecule
   37    38     1     0     0
SMALL
bcc


@<TRIPOS>ATOM
      1 OAS          0.0000     0.0000     0.0000 o          1 Y09      -0.892500
      2 PAR          1.6110     0.0000     0.0000 p5         1 Y09       1.043000
      3 OAU          2.1470     0.0000     1.5180 o          1 Y09      -0.892500
      4 OAT          2.1040    -1.2090    -0.6970 o          1 Y09      -0.892500
      5 CAM          2.2150     1.4800    -0.8560 ca         1 Y09      -0.139500
      6 CAN          2.4450     2.6430    -0.1470 ca         1 Y09      -0.049000
      7 CAO          2.9060     3.7720    -0.7990 ca         1 Y09      -0.209000
      8 CAP          3.1370     3.7410    -2.1610 ca         1 Y09      -0.145000
      9 CAQ          2.9080     2.5810    -2.8750 ca         1 Y09      -0.276000
     10 CAL          2.4510     1.4450    -2.2230 ca         1 Y09       0.171100
     11 OAK          2.2250     0.3020    -2.9230 os         1 Y09      -0.213900
     12 CAA          2.4780     0.3430    -4.3290 c3         1 Y09       0.077400
     13 CAB          2.1730    -1.0040    -4.9330 c          1 Y09       0.627100
     14 OAD          1.7780    -1.9100    -4.2280 o          1 Y09      -0.473100
     15 NAC          2.3390    -1.2040    -6.2550 ns         1 Y09      -0.504100
     16 CAE          2.1500    -2.4780    -6.8000 ca         1 Y09       0.116600
     17 CAF          1.1710    -3.3150    -6.2840 ca         1 Y09      -0.144000
     18 CAJ          2.9370    -2.9050    -7.8630 ca         1 Y09      -0.216000
     19 CAI          2.7480    -4.1630    -8.4010 ca         1 Y09      -0.089000
     20 CAH          1.7790    -5.0000    -7.8850 ca         1 Y09      -0.260000
     21 CAG          0.9870    -4.5780    -6.8270 ca         1 Y09       0.152100
     22 OAV          0.0290    -5.4010    -6.3230 os         1 Y09      -0.311900
     23 CAW         -0.1060    -6.6870    -6.9310 c3         1 Y09       0.133700
     24 H4           2.2650     2.6710     0.9210 ha         1 Y09       0.153000
     25 H5           3.0860     4.6830    -0.2400 ha         1 Y09       0.082000
     26 H6           3.4960     4.6280    -2.6700 ha         1 Y09       0.074000
     27 H7           3.0910     2.5560    -3.9430 ha         1 Y09       0.080000
     28 H8           1.8480     1.0950    -4.7880 h1         1 Y09       0.027200
     29 H9           3.5190     0.5890    -4.5020 h1         1 Y09       0.027200
     30 H10          0.5000    -2.9530    -5.5150 ha         1 Y09       0.197000
     31 H11          3.6970    -2.2490    -8.2710 ha         1 Y09       0.119000
     32 H12          3.3630    -4.4930    -9.2300 ha         1 Y09       0.110000
     33 H13          1.6370    -5.9880    -8.3060 ha         1 Y09       0.116000
     34 H14         -0.8990    -7.2370    -6.4400 h1         1 Y09       0.031367
     35 H15         -0.3470    -6.5670    -7.9810 h1         1 Y09       0.031367
     36 H16          0.8250    -7.2320    -6.8350 h1         1 Y09       0.031367
     37 H3           2.5800    -0.4360    -6.8500 hn         1 Y09       0.308500
@<TRIPOS>BOND
     1     3     2 1
     2    11    12 1
     3    11    10 1
     4    12    13 1
     5    18    19 ar
     6    18    16 ar
     7     9    10 ar
     8     9     8 ar
     9    10     5 ar
    10    14    13 2
    11     8     7 ar
    12     5     2 1
    13     5     6 ar
    14     2     1 1
    15     2     4 1
    16    19    20 ar
    17    15    16 1
    18     7     6 ar
    19    16    17 ar
    20    20    21 ar
    21    17    21 ar
    22    21    22 1
    23    22    23 1
    24    13    15 1
    25     6    24 1
    26     7    25 1
    27     8    26 1
    28     9    27 1
    29    12    28 1
    30    12    29 1
    31    17    30 1
    32    18    31 1
    33    19    32 1
    34    20    33 1
    35    23    34 1
    36    23    35 1
    37    23    36 1
    38    15    37 1
@<TRIPOS>SUBSTRUCTURE
     1 Y09         1 TEMP              0 ****  ****    0 ROOT
