@<TRIPOS>MOLECULE
Y0R
   34    36     1     0     0
SMALL
bcc


@<TRIPOS>ATOM
      1 S1           0.0000     0.0000     0.0000 sy         1 Y0R       0.971200
      2 N2           1.6560     0.0000     0.0000 nz         1 Y0R      -0.128500
      3 O5          -0.4010     0.0000     1.3630 o          1 Y0R      -0.488800
      4 O6          -0.4020     0.9970    -0.9290 o          1 Y0R      -0.488800
      5 C7          -0.5210    -1.5440    -0.6710 cc         1 Y0R      -0.201600
      6 S8          -0.8130    -1.8600    -2.3760 ss         1 Y0R      -0.155800
      7 C9          -1.2480    -3.5270    -2.0250 cc         1 Y0R       0.156400
      8 C10         -1.1540    -3.7470    -0.7000 cd         1 Y0R      -0.181000
      9 C11         -0.7480    -2.6520     0.0380 cd         1 Y0R       0.087000
     10 C12         -1.6550    -4.5340    -3.0310 cc         1 Y0R       0.243800
     11 C13         -1.7530    -4.3210    -4.3740 cd         1 Y0R      -0.351600
     12 N14         -2.1560    -5.5000    -4.9270 na         1 Y0R       0.688300
     13 N15         -2.2920    -6.4110    -3.8700 nd         1 Y0R      -0.356800
     14 N16         -1.9840    -5.8090    -2.7740 nc         1 Y0R      -0.220000
     15 C23         -3.0990    -6.5190   -10.4310 c3         1 Y0R       0.056200
     16 C24         -2.3880    -5.7510    -6.2870 ca         1 Y0R      -0.215200
     17 C25         -2.7980    -7.0120    -6.7000 ca         1 Y0R      -0.070500
     18 C26         -3.0270    -7.2580    -8.0400 ca         1 Y0R      -0.086500
     19 C27         -2.8490    -6.2490    -8.9700 ca         1 Y0R      -0.048300
     20 C28         -2.4410    -4.9920    -8.5600 ca         1 Y0R      -0.086500
     21 C29         -2.2170    -4.7390    -7.2210 ca         1 Y0R      -0.070500
     22 H1N2         1.9890    -0.7340     0.5930 hn         1 Y0R       0.313467
     23 H2N2         1.9890    -0.1460    -0.9320 hn         1 Y0R       0.313467
     24 H10         -1.3740    -4.7070    -0.2490 ha         1 Y0R       0.168000
     25 H11         -0.6300    -2.6880     1.1140 ha         1 Y0R       0.132000
     26 H13         -1.5500    -3.3960    -4.9000 h4         1 Y0R       0.168000
     27 H123        -2.4450    -5.8980   -11.0300 hc         1 Y0R       0.018033
     28 H223        -2.9000    -7.5630   -10.6440 hc         1 Y0R       0.018033
     29 H323        -4.1310    -6.2930   -10.6680 hc         1 Y0R       0.018033
     30 H25         -2.9370    -7.8020    -5.9730 ha         1 Y0R       0.121500
     31 H26         -3.3460    -8.2410    -8.3630 ha         1 Y0R       0.121000
     32 H28         -2.3070    -4.2030    -9.2900 ha         1 Y0R       0.121000
     33 H29         -1.8970    -3.7550    -6.9010 ha         1 Y0R       0.121500
     34 H23          1.9890     0.8760     0.3500 hn         1 Y0R       0.313467
@<TRIPOS>BOND
     1     1     2 1   
     2     1     3 2   
     3     1     4 2   
     4     1     5 1   
     5     2    22 1   
     6     2    23 1   
     7     2    34 1   
     8     5     6 1   
     9     5     9 2   
    10     6     7 1   
    11     7     8 2   
    12     7    10 1   
    13     8     9 1   
    14     8    24 1   
    15     9    25 1   
    16    10    11 2   
    17    10    14 1   
    18    11    12 1   
    19    11    26 1   
    20    12    13 1   
    21    12    16 1   
    22    13    14 2   
    23    15    19 1   
    24    15    27 1   
    25    15    28 1   
    26    15    29 1   
    27    16    17 ar  
    28    16    21 ar  
    29    17    18 ar  
    30    17    30 1   
    31    18    19 ar  
    32    18    31 1   
    33    19    20 ar  
    34    20    21 ar  
    35    20    32 1   
    36    21    33 1   
@<TRIPOS>SUBSTRUCTURE
     1 Y0R         1 TEMP              0 ****  ****    0 ROOT
