@<TRIPOS>MOLECULE
molecule
   34    36     1     0     0
SMALL
bcc


@<TRIPOS>ATOM
      1 S1           0.0000     0.0000     0.0000 sy         1 Y0R       1.267200
      2 N2           1.6560     0.0000     0.0000 nz         1 Y0R      -0.806500
      3 O5          -0.4010     0.0000     1.3630 o          1 Y0R      -0.516800
      4 O6          -0.4020     0.9970    -0.9290 o          1 Y0R      -0.516800
      5 C7          -0.5210    -1.5440    -0.6710 cc         1 Y0R      -0.365600
      6 S8          -0.8130    -1.8600    -2.3760 ss         1 Y0R      -0.011800
      7 C9          -1.2480    -3.5270    -2.0250 cc         1 Y0R       0.077400
      8 C10         -1.1540    -3.7470    -0.7000 cd         1 Y0R      -0.182000
      9 C11         -0.7480    -2.6520     0.0380 cd         1 Y0R       0.027000
     10 C12         -1.6550    -4.5340    -3.0310 cc         1 Y0R       0.274800
     11 C13         -1.7530    -4.3210    -4.3740 cd         1 Y0R      -0.185600
     12 N14         -2.1560    -5.5000    -4.9270 na         1 Y0R       0.180300
     13 N15         -2.2920    -6.4110    -3.8700 nd         1 Y0R      -0.140800
     14 N16         -1.9840    -5.8090    -2.7740 nc         1 Y0R      -0.307000
     15 C23         -3.0990    -6.5190   -10.4310 c3         1 Y0R      -0.054800
     16 C24         -2.3880    -5.7510    -6.2870 ca         1 Y0R      -0.024200
     17 C25         -2.7980    -7.0120    -6.7000 ca         1 Y0R      -0.115000
     18 C26         -3.0270    -7.2580    -8.0400 ca         1 Y0R      -0.109500
     19 C27         -2.8490    -6.2490    -8.9700 ca         1 Y0R      -0.058300
     20 C28         -2.4410    -4.9920    -8.5600 ca         1 Y0R      -0.109500
     21 C29         -2.2170    -4.7390    -7.2210 ca         1 Y0R      -0.115000
     22 H1N2         1.9890    -0.7340     0.5930 hn         1 Y0R       0.491800
     23 H2N2         1.9890    -0.1460    -0.9320 hn         1 Y0R       0.491800
     24 H10         -1.3740    -4.7070    -0.2490 ha         1 Y0R       0.200000
     25 H11         -0.6300    -2.6880     1.1140 ha         1 Y0R       0.170000
     26 H13         -1.5500    -3.3960    -4.9000 h4         1 Y0R       0.190000
     27 H123        -2.4450    -5.8980   -11.0300 hc         1 Y0R       0.055033
     28 H223        -2.9000    -7.5630   -10.6440 hc         1 Y0R       0.055033
     29 H323        -4.1310    -6.2930   -10.6680 hc         1 Y0R       0.055033
     30 H25         -2.9370    -7.8020    -5.9730 ha         1 Y0R       0.146500
     31 H26         -3.3460    -8.2410    -8.3630 ha         1 Y0R       0.151000
     32 H28         -2.3070    -4.2030    -9.2900 ha         1 Y0R       0.151000
     33 H29         -1.8970    -3.7550    -6.9010 ha         1 Y0R       0.146500
     34 H23          1.9890     0.8760     0.3500 hn         1 Y0R       0.491800
@<TRIPOS>BOND
     1     2     1 1
     2     4     1 2
     3     1     5 1
     4     1     3 2
     5     5     9 2
     6     5     6 1
     7     9     8 1
     8     6     7 1
     9     8     7 2
    10     7    10 1
    11    14    10 1
    12    14    13 2
    13    10    11 2
    14    13    12 1
    15    11    12 1
    16    12    16 1
    17    21    16 ar
    18    21    20 ar
    19    16    17 ar
    20    20    19 ar
    21    17    18 ar
    22    19    18 ar
    23    19    15 1
    24     2    22 1
    25     2    23 1
    26     8    24 1
    27     9    25 1
    28    11    26 1
    29    15    27 1
    30    15    28 1
    31    15    29 1
    32    17    30 1
    33    18    31 1
    34    20    32 1
    35    21    33 1
    36    34     2 1
@<TRIPOS>SUBSTRUCTURE
     1 Y0R         1 TEMP              0 ****  ****    0 ROOT
