@<TRIPOS>MOLECULE
molecule
   23    24     1     0     0
SMALL
bcc


@<TRIPOS>ATOM
      1 C1           0.0000     0.0000     0.0000 ca         1 Y0V      -0.107600
      2 I1          -1.0260    -0.0030     4.2360 i          1 Y0V      -0.185900
      3 N1           2.1010     0.0000     3.6080 na         1 Y0V       0.019800
      4 O1          -0.0680     0.0080    -2.4420 o          1 Y0V      -0.812800
      5 C2           1.3980     0.0000     0.0000 ca         1 Y0V      -0.035000
      6 I2           4.1810    -0.0000     1.1890 i          1 Y0V      -0.189900
      7 O2          -2.0530    -0.0010     1.2280 oh         1 Y0V      -0.460100
      8 C3           2.0870     0.0000     1.1920 ca         1 Y0V       0.021900
      9 O3          -1.9550     0.0120    -1.2690 o          1 Y0V      -0.812800
     10 C4           1.3950     0.0000     2.4010 ca         1 Y0V       0.027800
     11 C5           0.0060    -0.0010     2.4120 ca         1 Y0V      -0.019100
     12 C6          -0.6970    -0.0010     1.2200 ca         1 Y0V       0.179100
     13 C7           2.9080     1.0060     4.0580 cc         1 Y0V      -0.136300
     14 C8           3.4050     0.6410     5.2570 cd         1 Y0V      -0.217000
     15 C9           2.8880    -0.6350     5.5600 cd         1 Y0V      -0.217000
     16 C10          2.0940    -1.0040     4.5350 cc         1 Y0V      -0.136300
     17 C11         -0.7390     0.0060    -1.2730 c          1 Y0V       0.878200
     18 H2           1.9400     0.0010    -0.9380 ha         1 Y0V       0.182000
     19 HO2         -2.3650    -0.7820     1.6550 ho         1 Y0V       0.413000
     20 H7           3.1130     1.9360     3.5410 h4         1 Y0V       0.168500
     21 H8           4.0790     1.2230     5.8750 ha         1 Y0V       0.136500
     22 H9           3.0920    -1.2130     6.4530 ha         1 Y0V       0.136500
     23 H10          1.5450    -1.9340     4.4590 h4         1 Y0V       0.168500
@<TRIPOS>BOND
     1     5     1 ar
     2    17     1 1
     3     1    12 ar
     4    11     2 1
     5    10     3 1
     6     3    13 1
     7     3    16 1
     8    17     4 1
     9     5     8 ar
    10     5    18 1
    11     6     8 1
    12    12     7 1
    13     7    19 1
    14     8    10 ar
    15     9    17 1
    16    10    11 ar
    17    12    11 ar
    18    13    14 2
    19    13    20 1
    20    14    15 1
    21    14    21 1
    22    16    15 2
    23    15    22 1
    24    16    23 1
@<TRIPOS>SUBSTRUCTURE
     1 Y0V         1 TEMP              0 ****  ****    0 ROOT
