@<TRIPOS>MOLECULE
molecule
   58    59     1     0     0
SMALL
bcc


@<TRIPOS>ATOM
      1 N            0.0000     0.0000     0.0000 ns         1 Y10      -0.576900
      2 O1          -4.0710     3.1480     0.0640 oh         1 Y10      -0.576800
      3 O2          -2.1290     1.6590     0.0470 oh         1 Y10      -0.577800
      4 O3          -4.6080     0.3310     0.2570 oh         1 Y10      -0.573800
      5 O4          -0.0670    -0.9410    -2.0080 o          1 Y10      -0.590100
      6 O5          -2.6560    -1.1620    -2.2280 os         1 Y10      -0.392600
      7 C01         -8.2060     3.1460     0.4530 c3         1 Y10      -0.041800
      8 C04         -4.7170     2.4080    -0.9740 c3         1 Y10       0.168300
      9 C05         -4.2110     0.9630    -0.9610 c3         1 Y10       0.135100
     10 C06         -2.6860     0.9560    -1.0650 c3         1 Y10       0.136100
     11 C07         -2.1800    -0.4870    -1.0610 c3         1 Y10       0.060100
     12 C08         -8.8870     2.2520    -0.5850 c3         1 Y10      -0.079767
     13 C09         -8.5130     2.6220     1.8570 c3         1 Y10      -0.079767
     14 C10         -8.7300     4.5760     0.3160 c3         1 Y10      -0.079767
     15 C11         -0.6730    -0.4930    -1.0580 c          1 Y10       0.651100
     16 C12          1.4650     0.0000     0.0000 c3         1 Y10       0.113700
     17 C13          2.0130     0.0000     1.4430 c3         1 Y10      -0.048100
     18 C14          3.2670     0.8470     1.3910 ca         1 Y10      -0.093800
     19 C15          3.2670     1.6110     0.2390 ca         1 Y10      -0.093800
     20 C16          2.0140     1.3290    -0.5630 c3         1 Y10      -0.048100
     21 C17          4.3230     0.9420     2.2800 ca         1 Y10      -0.112500
     22 C18          5.3760     1.7970     2.0200 ca         1 Y10      -0.127500
     23 C19          5.3770     2.5610     0.8690 ca         1 Y10      -0.127500
     24 C20          4.3240     2.4680    -0.0200 ca         1 Y10      -0.112500
     25 HN          -0.5000     0.3210     0.8050 hn         1 Y10       0.335500
     26 HO1         -3.8800     4.0190    -0.2430 ho         1 Y10       0.390000
     27 HO2         -1.7480     2.4680    -0.2510 ho         1 Y10       0.406000
     28 HO3         -5.3170    -0.2660     0.0850 ho         1 Y10       0.393000
     29 H02         -6.0650     3.7130     0.8700 ha         1 Y10       0.145000
     30 H03         -6.8570     1.8410    -1.3920 ha         1 Y10       0.131000
     31 H04         -4.4930     2.8600    -1.9330 h1         1 Y10       0.035700
     32 H05         -4.6330     0.4250    -1.8010 h1         1 Y10       0.050700
     33 H06         -2.3850     1.4420    -1.9860 h1         1 Y10       0.053700
     34 H07         -2.5450    -0.9950    -0.1770 h1         1 Y10       0.078700
     35 H08         -8.6570     2.6130    -1.5800 hc         1 Y10       0.035922
     36 H08A        -9.9590     2.2720    -0.4310 hc         1 Y10       0.035922
     37 H08B        -8.5270     1.2350    -0.4780 hc         1 Y10       0.035922
     38 H09         -8.1890     1.5910     1.9370 hc         1 Y10       0.035922
     39 H09A        -7.9880     3.2230     2.5900 hc         1 Y10       0.035922
     40 H09B        -9.5790     2.6810     2.0390 hc         1 Y10       0.035922
     41 H10         -8.2620     5.2050     1.0640 hc         1 Y10       0.035922
     42 H10A        -9.8040     4.5830     0.4590 hc         1 Y10       0.035922
     43 H10B        -8.4950     4.9540    -0.6710 hc         1 Y10       0.035922
     44 H12          1.8560    -0.8420    -0.5580 h1         1 Y10       0.092700
     45 H13          2.2700    -1.0110     1.7340 hc         1 Y10       0.061200
     46 H13A         1.2910     0.4610     2.1060 hc         1 Y10       0.061200
     47 H16          2.2730     1.2020    -1.6070 hc         1 Y10       0.061200
     48 H16A         1.2920     2.1190    -0.3980 hc         1 Y10       0.061200
     49 H17          4.3240     0.3430     3.1830 ha         1 Y10       0.128500
     50 H18          6.2020     1.8690     2.7190 ha         1 Y10       0.130000
     51 H19          6.2020     3.2320     0.6630 ha         1 Y10       0.130000
     52 H20          4.3250     3.0670    -0.9230 ha         1 Y10       0.128500
     53 H21         -3.5880    -2.9560    -2.6360 h1         1 Y10       0.033367
     54 H21A        -4.6590    -1.6420    -2.1310 h1         1 Y10       0.033367
     55 H21B        -3.6280    -2.4480    -0.9420 h1         1 Y10       0.033367
     56 C21         -3.6960    -2.1090    -1.9690 c3         1 Y10       0.124700
     57 C03         -6.2070     2.4210    -0.7480 c2         1 Y10      -0.232200
     58 C02         -6.7160     3.1330     0.2270 c2         1 Y10      -0.122200
@<TRIPOS>BOND
     1    16     1 1
     2     1    15 1
     3     1    25 1
     4     8     2 1
     5     2    26 1
     6    10     3 1
     7     3    27 1
     8     9     4 1
     9     4    28 1
    10     5    15 2
    11    11     6 1
    12     6    56 1
    13    13     7 1
    14    14     7 1
    15     7    12 1
    16     7    58 1
    17    58    57 2
    18    58    29 1
    19    57     8 1
    20    57    30 1
    21     8     9 1
    22     8    31 1
    23    10     9 1
    24     9    32 1
    25    11    10 1
    26    10    33 1
    27    15    11 1
    28    11    34 1
    29    12    35 1
    30    12    36 1
    31    12    37 1
    32    13    38 1
    33    13    39 1
    34    13    40 1
    35    14    41 1
    36    14    42 1
    37    14    43 1
    38    20    16 1
    39    16    17 1
    40    16    44 1
    41    18    17 1
    42    17    45 1
    43    17    46 1
    44    19    18 ar
    45    21    18 ar
    46    24    19 ar
    47    19    20 1
    48    20    47 1
    49    20    48 1
    50    22    21 ar
    51    21    49 1
    52    23    22 ar
    53    22    50 1
    54    23    24 ar
    55    23    51 1
    56    24    52 1
    57    56    53 1
    58    56    54 1
    59    56    55 1
@<TRIPOS>SUBSTRUCTURE
     1 Y10         1 TEMP              0 ****  ****    0 ROOT
