@<TRIPOS>MOLECULE
Y10
   58    61     1     0     0
SMALL
bcc


@<TRIPOS>ATOM
      1 N            0.0000     0.0000     0.0000 ns         1 Y10      -0.008000
      2 O1          -4.0710     3.1480     0.0640 oh         1 Y10      -0.295000
      3 O2          -2.1290     1.6590     0.0470 oh         1 Y10      -0.313000
      4 O3          -4.6080     0.3310     0.2570 oh         1 Y10      -0.308000
      5 O4          -0.0670    -0.9410    -2.0080 o          1 Y10      -0.388000
      6 O5          -2.6560    -1.1620    -2.2280 os         1 Y10      -0.231000
      7 C01         -8.2060     3.1460     0.4530 DU         1 Y10       0.018000
      8 C04         -4.7170     2.4080    -0.9740 DU         1 Y10       0.165000
      9 C05         -4.2110     0.9630    -0.9610 c3         1 Y10       0.021000
     10 C06         -2.6860     0.9560    -1.0650 c3         1 Y10       0.021000
     11 C07         -2.1800    -0.4870    -1.0610 c3         1 Y10       0.033000
     12 C08         -8.8870     2.2520    -0.5850 c3         1 Y10      -0.127333
     13 C09         -8.5130     2.6220     1.8570 c3         1 Y10      -0.127333
     14 C10         -8.7300     4.5760     0.3160 c3         1 Y10      -0.127333
     15 C11         -0.6730    -0.4930    -1.0580 c2         1 Y10       0.204000
     16 C12          1.4650     0.0000     0.0000 c3         1 Y10      -0.065000
     17 C13          2.0130     0.0000     1.4430 c3         1 Y10      -0.058000
     18 C14          3.2670     0.8470     1.3910 ca         1 Y10      -0.094000
     19 C15          3.2670     1.6110     0.2390 ca         1 Y10      -0.094000
     20 C16          2.0140     1.3290    -0.5630 c3         1 Y10      -0.058000
     21 C17          4.3230     0.9420     2.2800 ca         1 Y10      -0.081000
     22 C18          5.3760     1.7970     2.0200 ca         1 Y10      -0.102000
     23 C19          5.3770     2.5610     0.8690 ca         1 Y10      -0.102000
     24 C20          4.3240     2.4680    -0.0200 ca         1 Y10      -0.081000
     25 HN          -0.5000     0.3150     0.8080 hn         1 Y10       0.109000
     26 HO1         -3.9040     4.0270    -0.2340 ho         1 Y10       0.189000
     27 HO2         -1.7560     2.4730    -0.2490 ho         1 Y10       0.198000
     28 HO3         -4.2880     0.8310     0.9890 ho         1 Y10       0.212000
     29 H02         -7.4200     3.7060    -0.3650 DU         1 Y10       0.067000
     30 H03         -5.6550     3.2150    -1.2360 DU         1 Y10      -0.030000
     31 H04         -4.4930     2.8600    -1.9330 ha         1 Y10       0.026000
     32 H05         -4.6330     0.4250    -1.8010 h1         1 Y10       0.100000
     33 H06         -2.3850     1.4420    -1.9860 h1         1 Y10       0.059000
     34 H07         -2.5450    -0.9950    -0.1770 h1         1 Y10       0.085000
     35 H08         -9.9590     2.2680    -0.4280 hc         1 Y10       0.051889
     36 H08A        -8.5230     1.2360    -0.4810 hc         1 Y10       0.051889
     37 H08B        -8.6620     2.6160    -1.5790 hc         1 Y10       0.051889
     38 H09         -8.1350     1.6110     1.9560 hc         1 Y10       0.051889
     39 H09A        -8.0370     3.2590     2.5920 hc         1 Y10       0.051889
     40 H09B        -9.5840     2.6240     2.0170 hc         1 Y10       0.051889
     41 H10         -8.8420     4.8210    -0.7330 hc         1 Y10       0.051889
     42 H10A        -8.0280     5.2630     0.7740 hc         1 Y10       0.051889
     43 H10B        -9.6900     4.6580     0.8110 hc         1 Y10       0.051889
     44 H12          1.8560    -0.8420    -0.5580 h1         1 Y10       0.107000
     45 H13          2.2700    -1.0110     1.7340 hc         1 Y10       0.066750
     46 H13A         1.2910     0.4610     2.1060 hc         1 Y10       0.066750
     47 H16          1.2920     2.1190    -0.3980 hc         1 Y10       0.066750
     48 H16A         2.2730     1.2020    -1.6070 hc         1 Y10       0.066750
     49 H17          4.3240     0.3430     3.1830 ha         1 Y10       0.101500
     50 H18          6.2020     1.8690     2.7190 ha         1 Y10       0.103000
     51 H19          6.2020     3.2320     0.6630 ha         1 Y10       0.103000
     52 H20          4.3250     3.0670    -0.9230 ha         1 Y10       0.101500
     53 H21         -3.3620    -3.0990    -2.2560 h1         1 Y10       0.035333
     54 H21A        -3.9360    -2.1020    -0.9120 h1         1 Y10       0.035333
     55 H21B        -4.5770    -1.8450    -2.5410 h1         1 Y10       0.035333
     56 C21         -3.6960    -2.1090    -1.9690 c3         1 Y10       0.044000
     57 C03         -6.2070     2.4210    -0.7480 c2         1 Y10      -0.105000
     58 C02         -6.7160     3.1330     0.2270 c2         1 Y10      -0.116000
@<TRIPOS>BOND
     1     1    15 1   
     2     1    16 1   
     3     1    25 1   
     4     2     8 1   
     5     2    26 1   
     6     3    10 1   
     7     3    27 1   
     8     4     9 1   
     9     4    28 1   
    10     5    15 1   
    11     6    11 1   
    12     6    56 1   
    13     7    12 1   
    14     7    13 1   
    15     7    14 1   
    16     7    29 1   
    17     7    58 1   
    18     8     9 1   
    19     8    30 1   
    20     8    31 1   
    21     8    57 1   
    22     9    10 1   
    23     9    32 1   
    24    10    11 1   
    25    10    33 1   
    26    11    15 1   
    27    11    34 1   
    28    12    35 1   
    29    12    36 1   
    30    12    37 1   
    31    13    38 1   
    32    13    39 1   
    33    13    40 1   
    34    14    41 1   
    35    14    42 1   
    36    14    43 1   
    37    16    17 1   
    38    16    20 1   
    39    16    44 1   
    40    17    18 1   
    41    17    45 1   
    42    17    46 1   
    43    18    19 1   
    44    18    21 1   
    45    19    20 1   
    46    19    24 1   
    47    20    47 1   
    48    20    48 1   
    49    21    22 1   
    50    21    49 1   
    51    22    23 1   
    52    22    50 1   
    53    23    24 1   
    54    23    51 1   
    55    24    52 1   
    56    29    58 1   
    57    30    57 1   
    58    53    56 1   
    59    54    56 1   
    60    55    56 1   
    61    57    58 1   
@<TRIPOS>SUBSTRUCTURE
     1 Y10         1 TEMP              0 ****  ****    0 ROOT
