@<TRIPOS>MOLECULE
molecule
   64    66     1     0     0
SMALL
bcc


@<TRIPOS>ATOM
      1 C01          0.0000     0.0000     0.0000 c          1 Y11       0.793100
      2 C02          0.0370     0.7560     2.3350 c3         1 Y11       0.077500
      3 C03         -0.6210     0.0000     3.4960 c3         1 Y11       0.119400
      4 C04         -2.6920    -0.2230     2.3050 c3         1 Y11       0.119400
      5 C05         -2.1400     0.5210     1.0820 c3         1 Y11       0.077500
      6 O06          1.2160     0.0000     0.0000 o          1 Y11      -0.669100
      7 O07         -2.0290     0.2470     3.4800 os         1 Y11      -0.418600
      8 N08         -0.6730     0.4080     1.0940 n          1 Y11      -0.509800
      9 N09         -0.6750    -0.4020    -1.0950 ns         1 Y11      -0.589900
     10 C10          0.0530    -0.9540    -2.2410 c3         1 Y11       0.059700
     11 C11          0.2940    -2.4480    -2.0200 c3         1 Y11      -0.090400
     12 C12          1.2240    -2.6440    -0.8210 c3         1 Y11      -0.066700
     13 C13          1.3660    -4.1370    -0.5230 c3         1 Y11      -0.074900
     14 C14          2.2960    -4.3310     0.6780 c3         1 Y11      -0.073900
     15 C15          3.6700    -3.7420     0.3580 c3         1 Y11      -0.082400
     16 C16          3.5280    -2.2470     0.0610 c3         1 Y11      -0.073900
     17 C17          2.5980    -2.0530    -1.1390 c3         1 Y11      -0.074900
     18 C18         -0.7610    -0.7560    -3.4940 c          1 Y11       0.654100
     19 O19         -1.8420    -0.2090    -3.4350 o          1 Y11      -0.605100
     20 N20         -0.2880    -1.1890    -4.6800 ns         1 Y11      -0.578900
     21 C21         -1.3160     0.4990    -6.1250 c3         1 Y11      -0.085900
     22 C22          0.0310     1.1980    -6.3290 c3         1 Y11       0.163800
     23 C23          0.9960    -0.8140    -7.2730 c3         1 Y11       0.163800
     24 C24         -0.3210    -1.5730    -7.0960 c3         1 Y11      -0.085900
     25 N25          0.7160     0.6110    -7.4880 n3         1 Y11      -0.732600
     26 C26          1.9480     1.3490    -7.7990 c3         1 Y11       0.153100
     27 C27         -2.3730    -1.6850    -5.7570 c1         1 Y11       0.210700
     28 N28         -3.3720    -2.2160    -5.6490 n1         1 Y11      -0.353800
     29 C29         -1.0790    -0.9970    -5.8980 c3         1 Y11       0.201500
     30 H022        -0.0340     1.8220     2.5090 h1         1 Y11       0.063950
     31 H031        -0.2050     0.3470     4.4340 h1         1 Y11       0.055700
     32 H032        -0.4400    -1.0620     3.3840 h1         1 Y11       0.055700
     33 H041        -2.5150    -1.2850     2.1910 h1         1 Y11       0.055700
     34 H042        -3.7550    -0.0350     2.3910 h1         1 Y11       0.055700
     35 H051        -2.5320     0.0740     0.1770 h1         1 Y11       0.063950
     36 H052        -2.4240     1.5650     1.1330 h1         1 Y11       0.063950
     37 HN09        -1.6660    -0.2760    -1.1460 hn         1 Y11       0.336500
     38 H10          1.0040    -0.4460    -2.3440 h1         1 Y11       0.099700
     39 H111         0.7520    -2.8750    -2.9040 hc         1 Y11       0.047700
     40 H112        -0.6510    -2.9430    -1.8290 hc         1 Y11       0.047700
     41 H12          0.8110    -2.1430     0.0470 hc         1 Y11       0.070700
     42 H131         1.7860    -4.6380    -1.3870 hc         1 Y11       0.041200
     43 H132         0.3920    -4.5530    -0.2950 hc         1 Y11       0.041200
     44 H141         1.8790    -3.8260     1.5400 hc         1 Y11       0.042200
     45 H142         2.3970    -5.3890     0.8870 hc         1 Y11       0.042200
     46 H151         4.3270    -3.8780     1.2090 hc         1 Y11       0.037200
     47 H152         4.0850    -4.2430    -0.5080 hc         1 Y11       0.037200
     48 H161         4.5020    -1.8320    -0.1680 hc         1 Y11       0.042200
     49 H162         3.1100    -1.7460     0.9250 hc         1 Y11       0.042200
     50 H171         3.0150    -2.5570    -2.0020 hc         1 Y11       0.041200
     51 H172         2.4960    -0.9950    -1.3460 hc         1 Y11       0.041200
     52 HN20         0.5810    -1.6840    -4.7210 hn         1 Y11       0.326500
     53 H211        -1.9310     0.6370    -7.0050 hc         1 Y11       0.074200
     54 H212        -1.8130     0.9210    -5.2590 hc         1 Y11       0.074200
     55 H221         0.6420     1.0670    -5.4440 h1         1 Y11       0.039450
     56 H222        -0.1350     2.2540    -6.5060 h1         1 Y11       0.039450
     57 H231         1.6020    -0.9320    -6.3830 h1         1 Y11       0.039450
     58 H232         1.5260    -1.2090    -8.1320 h1         1 Y11       0.039450
     59 H241        -0.9230    -1.4630    -7.9900 hc         1 Y11       0.074200
     60 H242        -0.1120    -2.6210    -6.9210 hc         1 Y11       0.074200
     61 H261         1.7050     2.3830    -8.0140 h1         1 Y11       0.034700
     62 H262         2.4280     0.9030    -8.6620 h1         1 Y11       0.034700
     63 H263         2.6200     1.3050    -6.9500 h1         1 Y11       0.034700
     64 H021         1.0770     0.4630     2.2540 h1         1 Y11       0.063950
@<TRIPOS>BOND
     1    15    14 1
     2    15    16 1
     3    14    13 1
     4    13    12 1
     5    16    17 1
     6    17    12 1
     7    12    11 1
     8    11    10 1
     9    27    28 3
    10    27    29 1
    11    10    18 1
    12    10     9 1
    13    20    18 1
    14    20    29 1
    15    24    29 1
    16    24    23 1
    17    18    19 2
    18    29    21 1
    19     9     1 1
    20    23    25 1
    21    21    22 1
    22     1     6 2
    23     1     8 1
    24    25    22 1
    25    25    26 1
    26     5     8 1
    27     5     4 1
    28     8     2 1
    29     4     7 1
    30     2     3 1
    31     7     3 1
    32     2    64 1
    33     2    30 1
    34     3    31 1
    35     3    32 1
    36     4    33 1
    37     4    34 1
    38     5    35 1
    39     5    36 1
    40     9    37 1
    41    10    38 1
    42    11    39 1
    43    11    40 1
    44    12    41 1
    45    13    42 1
    46    13    43 1
    47    14    44 1
    48    14    45 1
    49    15    46 1
    50    15    47 1
    51    16    48 1
    52    16    49 1
    53    17    50 1
    54    17    51 1
    55    20    52 1
    56    21    53 1
    57    21    54 1
    58    22    55 1
    59    22    56 1
    60    23    57 1
    61    23    58 1
    62    24    59 1
    63    24    60 1
    64    26    61 1
    65    26    62 1
    66    26    63 1
@<TRIPOS>SUBSTRUCTURE
     1 Y11         1 TEMP              0 ****  ****    0 ROOT
