@<TRIPOS>MOLECULE
Y11
   64    66     1     0     0
SMALL
bcc


@<TRIPOS>ATOM
      1 C01          0.0000     0.0000     0.0000 c          1 Y11       0.602100
      2 C02          0.0370     0.7560     2.3350 c3         1 Y11       0.015000
      3 C03         -0.6210     0.0000     3.4960 c3         1 Y11       0.197400
      4 C04         -2.6920    -0.2230     2.3050 c3         1 Y11       0.197400
      5 C05         -2.1400     0.5210     1.0820 c3         1 Y11       0.015000
      6 O06          1.2160     0.0000     0.0000 o          1 Y11      -0.715100
      7 O07         -2.0290     0.2470     3.4800 os         1 Y11      -0.403600
      8 N08         -0.6730     0.4080     1.0940 n          1 Y11      -0.173800
      9 N09         -0.6750    -0.4020    -1.0950 ns         1 Y11      -0.210900
     10 C10          0.0530    -0.9540    -2.2410 c3         1 Y11      -0.048300
     11 C11          0.2940    -2.4480    -2.0200 c3         1 Y11      -0.036400
     12 C12          1.2240    -2.6440    -0.8210 c3         1 Y11      -0.060700
     13 C13          1.3660    -4.1370    -0.5230 c3         1 Y11      -0.029400
     14 C14          2.2960    -4.3310     0.6780 c3         1 Y11      -0.018900
     15 C15          3.6700    -3.7420     0.3580 c3         1 Y11      -0.027400
     16 C16          3.5280    -2.2470     0.0610 c3         1 Y11      -0.018900
     17 C17          2.5980    -2.0530    -1.1390 c3         1 Y11      -0.029400
     18 C18         -0.7610    -0.7560    -3.4940 c          1 Y11       0.575100
     19 O19         -1.8420    -0.2090    -3.4350 o          1 Y11      -0.642100
     20 N20         -0.2880    -1.1890    -4.6800 ns         1 Y11      -0.199900
     21 C21         -1.3160     0.4990    -6.1250 c3         1 Y11      -0.049900
     22 C22          0.0310     1.1980    -6.3290 c3         1 Y11       0.154300
     23 C23          0.9960    -0.8140    -7.2730 c3         1 Y11       0.154300
     24 C24         -0.3210    -1.5730    -7.0960 c3         1 Y11      -0.049900
     25 N25          0.7160     0.6110    -7.4880 n3         1 Y11      -0.543600
     26 C26          1.9480     1.3490    -7.7990 c3         1 Y11       0.188100
     27 C27         -2.3730    -1.6850    -5.7570 c1         1 Y11       0.183700
     28 N28         -3.3720    -2.2160    -5.6490 n1         1 Y11      -0.358800
     29 C29         -1.0790    -0.9970    -5.8980 c3         1 Y11       0.150500
     30 H022        -0.0340     1.8220     2.5090 h1         1 Y11       0.037200
     31 H031        -0.2050     0.3470     4.4340 h1         1 Y11       0.014950
     32 H032        -0.4400    -1.0620     3.3840 h1         1 Y11       0.014950
     33 H041        -2.5150    -1.2850     2.1910 h1         1 Y11       0.014950
     34 H042        -3.7550    -0.0350     2.3910 h1         1 Y11       0.014950
     35 H051        -2.5320     0.0740     0.1770 h1         1 Y11       0.037200
     36 H052        -2.4240     1.5650     1.1330 h1         1 Y11       0.037200
     37 HN09        -1.6660    -0.2760    -1.1460 hn         1 Y11       0.205500
     38 H10          1.0040    -0.4460    -2.3440 h1         1 Y11       0.077700
     39 H111         0.7520    -2.8750    -2.9040 hc         1 Y11       0.020200
     40 H112        -0.6510    -2.9430    -1.8290 hc         1 Y11       0.020200
     41 H12          0.8110    -2.1430     0.0470 hc         1 Y11       0.054700
     42 H131         1.7860    -4.6380    -1.3870 hc         1 Y11       0.018450
     43 H132         0.3920    -4.5530    -0.2950 hc         1 Y11       0.018450
     44 H141         1.8790    -3.8260     1.5400 hc         1 Y11       0.014950
     45 H142         2.3970    -5.3890     0.8870 hc         1 Y11       0.014950
     46 H151         4.3270    -3.8780     1.2090 hc         1 Y11       0.010200
     47 H152         4.0850    -4.2430    -0.5080 hc         1 Y11       0.010200
     48 H161         4.5020    -1.8320    -0.1680 hc         1 Y11       0.014950
     49 H162         3.1100    -1.7460     0.9250 hc         1 Y11       0.014950
     50 H171         3.0150    -2.5570    -2.0020 hc         1 Y11       0.018450
     51 H172         2.4960    -0.9950    -1.3460 hc         1 Y11       0.018450
     52 HN20         0.5810    -1.6840    -4.7210 hn         1 Y11       0.192500
     53 H211        -1.9310     0.6370    -7.0050 hc         1 Y11       0.046950
     54 H212        -1.8130     0.9210    -5.2590 hc         1 Y11       0.046950
     55 H221         0.6420     1.0670    -5.4440 h1         1 Y11       0.012950
     56 H222        -0.1350     2.2540    -6.5060 h1         1 Y11       0.012950
     57 H231         1.6020    -0.9320    -6.3830 h1         1 Y11       0.012950
     58 H232         1.5260    -1.2090    -8.1320 h1         1 Y11       0.012950
     59 H241        -0.9230    -1.4630    -7.9900 hc         1 Y11       0.046950
     60 H242        -0.1120    -2.6210    -6.9210 hc         1 Y11       0.046950
     61 H261         1.7050     2.3830    -8.0140 h1         1 Y11       0.002700
     62 H262         2.4280     0.9030    -8.6620 h1         1 Y11       0.002700
     63 H263         2.6200     1.3050    -6.9500 h1         1 Y11       0.002700
     64 H021         1.0770     0.4630     2.2540 h1         1 Y11       0.037200
@<TRIPOS>BOND
     1     1     6 2   
     2     1     8 1   
     3     1     9 1   
     4     2     3 1   
     5     2     8 1   
     6     2    30 1   
     7     2    64 1   
     8     3     7 1   
     9     3    31 1   
    10     3    32 1   
    11     4     5 1   
    12     4     7 1   
    13     4    33 1   
    14     4    34 1   
    15     5     8 1   
    16     5    35 1   
    17     5    36 1   
    18     9    10 1   
    19     9    37 1   
    20    10    11 1   
    21    10    18 1   
    22    10    38 1   
    23    11    12 1   
    24    11    39 1   
    25    11    40 1   
    26    12    13 1   
    27    12    17 1   
    28    12    41 1   
    29    13    14 1   
    30    13    42 1   
    31    13    43 1   
    32    14    15 1   
    33    14    44 1   
    34    14    45 1   
    35    15    16 1   
    36    15    46 1   
    37    15    47 1   
    38    16    17 1   
    39    16    48 1   
    40    16    49 1   
    41    17    50 1   
    42    17    51 1   
    43    18    19 2   
    44    18    20 1   
    45    20    29 1   
    46    20    52 1   
    47    21    22 1   
    48    21    29 1   
    49    21    53 1   
    50    21    54 1   
    51    22    25 1   
    52    22    55 1   
    53    22    56 1   
    54    23    24 1   
    55    23    25 1   
    56    23    57 1   
    57    23    58 1   
    58    24    29 1   
    59    24    59 1   
    60    24    60 1   
    61    25    26 1   
    62    26    61 1   
    63    26    62 1   
    64    26    63 1   
    65    27    28 3   
    66    27    29 1   
@<TRIPOS>SUBSTRUCTURE
     1 Y11         1 TEMP              0 ****  ****    0 ROOT
