@<TRIPOS>MOLECULE
molecule
   48    49     1     0     0
SMALL
bcc


@<TRIPOS>ATOM
      1 C2           0.0000     0.0000     0.0000 ca         1 Y12      -0.127000
      2 C3           1.3830     0.0000     0.0000 ca         1 Y12      -0.125000
      3 C4           2.0740     0.0000     1.1970 ca         1 Y12      -0.121000
      4 C5           1.3820     0.0020     2.3940 ca         1 Y12      -0.085300
      5 C7           2.1350     0.0020     3.6990 c3         1 Y12      -0.054100
      6 C8           2.3910     1.4450     4.1400 c3         1 Y12       0.116000
      7 N9           3.1230     1.4450     5.4080 ns         1 Y12      -0.586900
      8 C10          3.4610     2.6130     5.9910 c          1 Y12       0.664300
      9 O27          3.1570     3.6670     5.4640 o          1 Y12      -0.613100
     10 C11          4.1910     2.6140     7.2590 ce         1 Y12      -0.254200
     11 C12          4.5300     3.7820     7.8420 cf         1 Y12      -0.019200
     12 C13          5.2640     3.7830     9.1160 ca         1 Y12      -0.058800
     13 C18          5.6150     4.9940     9.7230 ca         1 Y12      -0.161000
     14 C17          6.3000     4.9880    10.9230 ca         1 Y12       0.112100
     15 O23          6.6430     6.1630    11.5160 os         1 Y12      -0.326200
     16 C24          6.4190     7.3250    10.8810 c          1 Y12       0.645100
     17 O26          6.0210     7.3230     9.7410 o          1 Y12      -0.535000
     18 C25          6.6640     8.6300    11.5930 c3         1 Y12      -0.137100
     19 C16          6.6500     3.7780    11.5190 ca         1 Y12       0.113100
     20 O19          7.3290     3.7750    12.6960 os         1 Y12      -0.346200
     21 C20          6.6630     3.8990    13.8560 c          1 Y12       0.633100
     22 O22          5.4740     4.1140    13.8490 o          1 Y12      -0.528000
     23 C21          7.3970     3.7660    15.1650 c3         1 Y12      -0.134100
     24 C15          6.3030     2.5760    10.9170 ca         1 Y12      -0.117000
     25 C14          5.6140     2.5720     9.7250 ca         1 Y12      -0.122000
     26 C6          -0.0010    -0.0040     2.3940 ca         1 Y12      -0.121000
     27 C1          -0.6910     0.0000     1.1960 ca         1 Y12      -0.125000
     28 H2          -0.5410     0.0020    -0.9380 ha         1 Y12       0.130000
     29 H3           1.9240    -0.0010    -0.9380 ha         1 Y12       0.130000
     30 H4           3.1570    -0.0000     1.1980 ha         1 Y12       0.131000
     31 H71          1.5480    -0.5070     4.4540 hc         1 Y12       0.050700
     32 H72          3.0810    -0.5090     3.5700 hc         1 Y12       0.050700
     33 H81          2.9770     1.9550     3.3850 h1         1 Y12       0.058200
     34 H82          1.4450     1.9570     4.2690 h1         1 Y12       0.058200
     35 HN9          3.3530     0.5790     5.8540 hn         1 Y12       0.311500
     36 H11          4.4610     1.6760     7.7290 ha         1 Y12       0.126000
     37 H12          4.2600     4.7200     7.3710 ha         1 Y12       0.166000
     38 H18          5.2840     5.9310     9.2930 ha         1 Y12       0.213000
     39 H251         6.5030     9.4520    10.9060 hc         1 Y12       0.075367
     40 H252         7.6840     8.6580    11.9570 hc         1 Y12       0.075367
     41 H253         5.9800     8.7200    12.4290 hc         1 Y12       0.075367
     42 H211         6.6820     3.6570    15.9710 hc         1 Y12       0.071367
     43 H212         8.0410     2.8950    15.1320 hc         1 Y12       0.071367
     44 H213         7.9980     4.6520    15.3330 hc         1 Y12       0.071367
     45 H15          6.5750     1.6380    11.3860 ha         1 Y12       0.147000
     46 H14          5.3440     1.6330     9.2580 ha         1 Y12       0.139000
     47 H6          -0.5430    -0.0030     3.3320 ha         1 Y12       0.131000
     48 H1          -1.7740    -0.0020     1.1950 ha         1 Y12       0.130000
@<TRIPOS>BOND
     1     1     2 ar
     2     1    27 ar
     3     1    28 1
     4     2     3 ar
     5     2    29 1
     6     3     4 ar
     7     3    30 1
     8     4     5 1
     9     4    26 ar
    10     5     6 1
    11     5    31 1
    12     5    32 1
    13     6     7 1
    14     6    33 1
    15     6    34 1
    16     7     8 1
    17     7    35 1
    18     8     9 2
    19     8    10 1
    20    10    11 2
    21    10    36 1
    22    11    12 1
    23    11    37 1
    24    12    13 ar
    25    12    25 ar
    26    13    14 ar
    27    13    38 1
    28    14    15 1
    29    14    19 ar
    30    15    16 1
    31    16    17 2
    32    16    18 1
    33    18    39 1
    34    18    40 1
    35    18    41 1
    36    19    20 1
    37    19    24 ar
    38    20    21 1
    39    21    22 2
    40    21    23 1
    41    23    42 1
    42    23    43 1
    43    23    44 1
    44    24    25 ar
    45    24    45 1
    46    25    46 1
    47    26    27 ar
    48    26    47 1
    49    27    48 1
@<TRIPOS>SUBSTRUCTURE
     1 Y12         1 TEMP              0 ****  ****    0 ROOT
