@<TRIPOS>MOLECULE
Y12
   48    51     1     0     0
SMALL
bcc


@<TRIPOS>ATOM
      1 C2           0.0000     0.0000     0.0000 ca         1 Y12      -0.100000
      2 C3           1.3830     0.0000     0.0000 ca         1 Y12      -0.096500
      3 C4           2.0740     0.0000     1.1970 ca         1 Y12      -0.094000
      4 C5           1.3820     0.0020     2.3940 ca         1 Y12      -0.086000
      5 C7           2.1350     0.0020     3.6990 c3         1 Y12      -0.066000
      6 C8           2.3910     1.4450     4.1400 c3         1 Y12      -0.060000
      7 N9           3.1230     1.4450     5.4080 n7         1 Y12      -0.036000
      8 C10          3.4610     2.6130     5.9910 c3         1 Y12       0.349000
      9 O27          3.1570     3.6670     5.4640 o          1 Y12      -0.435000
     10 C11          4.1910     2.6140     7.2590 c2         1 Y12      -0.167000
     11 C12          4.5300     3.7820     7.8420 c2         1 Y12       0.039000
     12 C13          5.2640     3.7830     9.1160 c3         1 Y12       0.038000
     13 C18          5.6150     4.9940     9.7230 c2         1 Y12      -0.272000
     14 C17          6.3000     4.9880    10.9230 c2         1 Y12       0.115000
     15 O23          6.6430     6.1630    11.5160 os         1 Y12      -0.165000
     16 C24          6.4190     7.3250    10.8810 c2         1 Y12       0.373000
     17 O26          6.0210     7.3230     9.7410 o          1 Y12      -0.377000
     18 C25          6.6640     8.6300    11.5930 c3         1 Y12      -0.107000
     19 C16          6.6500     3.7780    11.5190 c2         1 Y12       0.016000
     20 O19          7.3290     3.7750    12.6960 os         1 Y12      -0.181000
     21 C20          6.6630     3.8990    13.8560 c2         1 Y12       0.354000
     22 O22          5.4740     4.1140    13.8490 o          1 Y12      -0.385000
     23 C21          7.3970     3.7660    15.1650 c3         1 Y12      -0.100000
     24 C15          6.3030     2.5760    10.9170 c2         1 Y12      -0.056000
     25 C14          5.6140     2.5720     9.7250 c2         1 Y12      -0.171000
     26 C6          -0.0010    -0.0040     2.3940 ca         1 Y12      -0.094000
     27 C1          -0.6910     0.0000     1.1960 ca         1 Y12      -0.096500
     28 H2          -0.5410     0.0020    -0.9380 ha         1 Y12       0.103000
     29 H3           1.9240    -0.0010    -0.9380 ha         1 Y12       0.103000
     30 H4           3.1570    -0.0000     1.1980 ha         1 Y12       0.105500
     31 H71          1.5480    -0.5070     4.4540 hc         1 Y12       0.059000
     32 H72          3.0810    -0.5100     3.5700 hc         1 Y12       0.059000
     33 H81          2.9770     1.9550     3.3850 h1         1 Y12       0.070000
     34 H82          1.4450     1.9570     4.2690 h1         1 Y12       0.070000
     35 HN9          3.4050     0.5790     5.8230 hn         1 Y12       0.096000
     36 H11          3.1280     2.8000     7.1660 DU         1 Y12       0.029000
     37 H12          4.0780     3.5980     8.8090 DU         1 Y12       0.086000
     38 H18          5.4070     5.9320     9.2220 ha         1 Y12       0.217000
     39 H251         6.0510     8.6760    12.4850 hc         1 Y12       0.071333
     40 H252         6.4080     9.4530    10.9370 hc         1 Y12       0.071333
     41 H253         7.7090     8.7010    11.8700 hc         1 Y12       0.071333
     42 H211         7.3390     2.7410    15.5100 hc         1 Y12       0.067333
     43 H212         6.9450     4.4210    15.9000 hc         1 Y12       0.067333
     44 H213         8.4360     4.0420    15.0260 hc         1 Y12       0.067333
     45 H15          6.5750     1.6380    11.3860 ha         1 Y12       0.114000
     46 H14          5.3440     1.6330     9.2580 ha         1 Y12       0.124000
     47 H6          -0.5430    -0.0030     3.3320 ha         1 Y12       0.105500
     48 H1          -1.7740    -0.0020     1.1950 ha         1 Y12       0.103000
@<TRIPOS>BOND
     1     1     2 1   
     2     1    27 1   
     3     1    28 1   
     4     2     3 1   
     5     2    29 1   
     6     3     4 1   
     7     3    30 1   
     8     4     5 1   
     9     4    26 1   
    10     5     6 1   
    11     5    31 1   
    12     5    32 1   
    13     6     7 1   
    14     6    33 1   
    15     6    34 1   
    16     7     8 1   
    17     7    35 1   
    18     8     9 1   
    19     8    10 1   
    20     8    36 1   
    21    10    11 1   
    22    10    36 1   
    23    11    12 1   
    24    11    37 1   
    25    12    13 1   
    26    12    25 1   
    27    12    37 1   
    28    13    14 1   
    29    13    38 1   
    30    14    15 1   
    31    14    19 1   
    32    15    16 1   
    33    16    17 1   
    34    16    18 1   
    35    18    39 1   
    36    18    40 1   
    37    18    41 1   
    38    19    20 1   
    39    19    24 1   
    40    20    21 1   
    41    21    22 1   
    42    21    23 1   
    43    23    42 1   
    44    23    43 1   
    45    23    44 1   
    46    24    25 1   
    47    24    45 1   
    48    25    46 1   
    49    26    27 1   
    50    26    47 1   
    51    27    48 1   
@<TRIPOS>SUBSTRUCTURE
     1 Y12         1 TEMP              0 ****  ****    0 ROOT
