@<TRIPOS>MOLECULE
molecule
   39    40     1     0     0
SMALL
bcc


@<TRIPOS>ATOM
      1 C2           0.0000     0.0000     0.0000 ca         1 Y13       0.106100
      2 O16         -0.6810    -0.0010    -1.1760 oh         1 Y13      -0.521100
      3 C1           1.3870     0.0000     0.0000 ca         1 Y13      -0.149000
      4 C6           2.0760     0.0000     1.1960 ca         1 Y13      -0.109000
      5 C5           1.3860    -0.0000     2.3950 ca         1 Y13      -0.094300
      6 C7           2.1410     0.0000     3.6980 c3         1 Y13      -0.053100
      7 C8           2.3970     1.4430     4.1390 c3         1 Y13       0.116000
      8 N9           3.1300     1.4430     5.4070 ns         1 Y13      -0.586900
      9 C10          3.4680     2.6110     5.9910 c          1 Y13       0.664300
     10 C11          4.2000     2.6100     7.2560 ce         1 Y13      -0.253200
     11 C12          4.5390     3.7790     7.8400 cf         1 Y13      -0.023200
     12 C13          5.2750     3.7800     9.1120 ca         1 Y13      -0.074800
     13 C14          5.6260     2.5690     9.7200 ca         1 Y13      -0.109000
     14 C15          6.3170     2.5720    10.9120 ca         1 Y13      -0.156000
     15 C16          6.6660     3.7740    11.5140 ca         1 Y13       0.102100
     16 O19          7.3460     3.7710    12.6890 oh         1 Y13      -0.509100
     17 C17          6.3190     4.9850    10.9150 ca         1 Y13       0.089100
     18 O23          6.6620     6.1590    11.5070 oh         1 Y13      -0.508100
     19 C18          5.6320     4.9910     9.7170 ca         1 Y13      -0.131000
     20 O27          3.1630     3.6650     5.4630 o          1 Y13      -0.614100
     21 C4           0.0030     0.0000     2.3970 ca         1 Y13      -0.109000
     22 C3          -0.6910     0.0060     1.2020 ca         1 Y13      -0.149000
     23 H16         -0.8390    -0.8900    -1.4480 ho         1 Y13       0.419000
     24 H1           1.9290     0.0000    -0.9380 ha         1 Y13       0.142000
     25 H6           3.1600    -0.0000     1.1960 ha         1 Y13       0.135000
     26 H71          3.0870    -0.5110     3.5670 hc         1 Y13       0.050700
     27 H72          1.5560    -0.5100     4.4540 hc         1 Y13       0.050700
     28 H81          2.9820     1.9530     3.3840 h1         1 Y13       0.059700
     29 H82          1.4500     1.9540     4.2690 h1         1 Y13       0.059700
     30 HN9          3.3790     0.5760     5.8410 hn         1 Y13       0.311500
     31 H11          4.4720     1.6720     7.7250 ha         1 Y13       0.128000
     32 H12          4.2680     4.7170     7.3710 ha         1 Y13       0.161000
     33 H14          5.3560     1.6300     9.2530 ha         1 Y13       0.137000
     34 H15          6.5880     1.6340    11.3820 ha         1 Y13       0.144000
     35 H19          8.2450     3.5360    12.5310 ho         1 Y13       0.425000
     36 H23          5.8910     6.5680    11.8640 ho         1 Y13       0.424000
     37 H18          5.3620     5.9310     9.2500 ha         1 Y13       0.149000
     38 H4          -0.5370     0.0030     3.3360 ha         1 Y13       0.135000
     39 H3          -1.7740     0.0070     1.2050 ha         1 Y13       0.142000
@<TRIPOS>BOND
     1     1     2 1
     2     1     3 ar
     3     1    22 ar
     4     2    23 1
     5     3     4 ar
     6     3    24 1
     7     4     5 ar
     8     4    25 1
     9     5     6 1
    10     5    21 ar
    11     6     7 1
    12     6    26 1
    13     6    27 1
    14     7     8 1
    15     7    28 1
    16     7    29 1
    17     8     9 1
    18     8    30 1
    19     9    10 1
    20     9    20 2
    21    10    11 2
    22    10    31 1
    23    11    12 1
    24    11    32 1
    25    12    13 ar
    26    12    19 ar
    27    13    14 ar
    28    13    33 1
    29    14    15 ar
    30    14    34 1
    31    15    16 1
    32    15    17 ar
    33    16    35 1
    34    17    18 1
    35    17    19 ar
    36    18    36 1
    37    19    37 1
    38    21    22 ar
    39    21    38 1
    40    22    39 1
@<TRIPOS>SUBSTRUCTURE
     1 Y13         1 TEMP              0 ****  ****    0 ROOT
