@<TRIPOS>MOLECULE
Y14
   71    75     1     0     0
SMALL
bcc


@<TRIPOS>ATOM
      1 C01          0.0000     0.0000     0.0000 c2         1 Y14      -0.041000
      2 C02         -2.1410    -0.4870     1.0960 c3         1 Y14      -0.487000
      3 C03         -2.5220     0.0000     2.4990 c3         1 Y14      -0.422500
      4 C04         -0.4520    -0.7770     3.4350 c3         1 Y14      -0.422500
      5 C05          0.0340    -1.3040     2.0780 c3         1 Y14      -0.487000
      6 O06          1.2160     0.0000     0.0000 o          1 Y14      -0.406000
      7 O07         -1.8810    -0.8260     3.4740 os         1 Y14       0.852000
      8 N08         -0.6740    -0.5740     1.0160 n          1 Y14       1.775000
      9 N09         -0.6730     0.5780    -1.0150 ns         1 Y14       0.020000
     10 C10          0.0550     1.1100    -2.1700 c3         1 Y14      -0.097000
     11 C11          0.2310     0.0060    -3.2140 c3         1 Y14      -0.115000
     12 C12          1.1030     0.5220    -4.3600 c3         1 Y14      -0.114000
     13 C13          2.5220     0.7750    -3.8470 c3         1 Y14      -0.102500
     14 C14          3.3940     1.2920    -4.9940 c3         1 Y14      -0.099500
     15 C15          3.4340     0.2500    -6.1130 c3         1 Y14      -0.102000
     16 C16          2.0150    -0.0020    -6.6260 c3         1 Y14      -0.099500
     17 C17          1.1430    -0.5190    -5.4800 c3         1 Y14      -0.102500
     18 C18         -0.7220     2.2520    -2.7710 c2         1 Y14       0.251000
     19 O19         -1.9040     2.3750    -2.5290 o          1 Y14      -0.386000
     20 C20          0.2970     5.5250    -4.5430 c3         1 Y14      -0.259000
     21 C21         -1.1460     5.4130    -2.5650 c3         1 Y14      -0.215000
     22 C22         -0.4150     6.7680    -2.6850 c3         1 Y14      -0.214000
     23 N23         -0.1030     3.1370    -3.5770 ns         1 Y14      -0.135000
     24 N24          0.7850     6.4730    -3.5090 n3         1 Y14      -0.009000
     25 C25          1.3140     7.6970    -4.1250 c3         1 Y14      -0.347000
     26 C26          2.0190     8.5230    -3.0810 ca         1 Y14      -0.155000
     27 C27          3.3680     8.3350    -2.8460 ca         1 Y14      -0.100500
     28 C28          4.0150     9.0920    -1.8870 ca         1 Y14      -0.087500
     29 C29          3.3130    10.0370    -1.1630 ca         1 Y14      -0.073000
     30 C30          1.9640    10.2250    -1.3970 ca         1 Y14      -0.087500
     31 C31          1.3180     9.4710    -2.3600 ca         1 Y14      -0.100500
     32 C32         -1.8260     4.2510    -4.6420 c1         1 Y14      -0.203000
     33 N33         -2.7060     4.0000    -5.3150 n1         1 Y14      -0.016000
     34 C34         -0.6780     4.5960    -3.7870 DU         1 Y14       0.326000
     35 H021        -1.0830    -0.3130     0.9410 h1         1 Y14      -0.130000
     36 H022        -2.7070     0.0780     0.3650 h1         1 Y14      -0.130000
     37 H031        -3.5920     0.1620     2.5350 h1         1 Y14      -0.008500
     38 H032        -2.2530    -0.7630     3.2190 h1         1 Y14      -0.008500
     39 H041        -1.4930    -1.0480     3.5630 h1         1 Y14      -0.008500
     40 H042         0.1350    -1.2380     4.2200 h1         1 Y14      -0.008500
     41 H051        -0.2790    -0.6160     1.3030 h1         1 Y14      -0.130000
     42 H052         1.1160    -1.3580     2.0910 h1         1 Y14      -0.130000
     43 HN09        -1.6740     0.5840    -1.0120 hn         1 Y14       0.129000
     44 H10          1.0280     1.4630    -1.8510 h1         1 Y14       0.117000
     45 H111        -0.7420    -0.3480    -3.5330 hc         1 Y14       0.075000
     46 H112         0.7890    -0.8150    -2.7820 hc         1 Y14       0.075000
     47 H12          0.6900     1.4470    -4.7450 hc         1 Y14       0.079000
     48 H131         2.4810     1.5070    -3.0500 hc         1 Y14       0.058500
     49 H132         2.9250    -0.1530    -3.4600 hc         1 Y14       0.058500
     50 H141         4.4200     1.3570    -4.6520 hc         1 Y14       0.052250
     51 H142         3.0500     2.2790    -5.2790 hc         1 Y14       0.052250
     52 H151         3.9550     0.6710    -6.9640 hc         1 Y14       0.054000
     53 H152         3.9720    -0.6220    -5.7610 hc         1 Y14       0.054000
     54 H161         1.6590     0.8900    -7.1250 hc         1 Y14       0.052250
     55 H162         2.0390    -0.8220    -7.3340 hc         1 Y14       0.052250
     56 H171         0.1400    -0.6590    -5.8640 hc         1 Y14       0.058500
     57 H172         1.5050    -1.4560    -5.0740 hc         1 Y14       0.058500
     58 H201         0.4260     4.5040    -4.2040 DU         1 Y14       0.066000
     59 H202         0.8220     5.6870    -5.4760 h1         1 Y14       0.169000
     60 H211        -1.6300     5.3340    -1.5990 hc         1 Y14       0.119500
     61 H212        -1.8710     5.3080    -3.3640 hc         1 Y14       0.119500
     62 H221        -1.0440     7.5660    -2.3080 h1         1 Y14       0.113000
     63 H222         0.5220     6.7350    -2.1440 h1         1 Y14       0.113000
     64 HN23         0.8910     3.1050    -3.6850 hn         1 Y14       0.110000
     65 H251         1.5240     8.4280    -3.3540 h1         1 Y14       0.192500
     66 H252         2.2270     7.4660    -4.6620 h1         1 Y14       0.192500
     67 H27          3.9190     7.5940    -3.4140 ha         1 Y14       0.128500
     68 H28          5.0730     8.9450    -1.7030 ha         1 Y14       0.113500
     69 H29          3.8200    10.6300    -0.4110 ha         1 Y14       0.111000
     70 H30          1.4140    10.9650    -0.8290 ha         1 Y14       0.113500
     71 H31          0.2610     9.6210    -2.5470 ha         1 Y14       0.128500
@<TRIPOS>BOND
     1     1     6 1   
     2     1     8 1   
     3     1     9 1   
     4     2     3 1   
     5     2     8 1   
     6     2    35 1   
     7     2    36 1   
     8     3     7 1   
     9     3    37 1   
    10     3    38 1   
    11     4     5 1   
    12     4     7 1   
    13     4    39 1   
    14     4    40 1   
    15     5     8 1   
    16     5    41 1   
    17     5    42 1   
    18     9    10 1   
    19     9    43 1   
    20    10    11 1   
    21    10    18 1   
    22    10    44 1   
    23    11    12 1   
    24    11    45 1   
    25    11    46 1   
    26    12    13 1   
    27    12    17 1   
    28    12    47 1   
    29    13    14 1   
    30    13    48 1   
    31    13    49 1   
    32    14    15 1   
    33    14    50 1   
    34    14    51 1   
    35    15    16 1   
    36    15    52 1   
    37    15    53 1   
    38    16    17 1   
    39    16    54 1   
    40    16    55 1   
    41    17    56 1   
    42    17    57 1   
    43    18    19 1   
    44    18    23 1   
    45    20    24 1   
    46    20    34 1   
    47    20    58 1   
    48    20    59 1   
    49    21    22 1   
    50    21    34 1   
    51    21    60 1   
    52    21    61 1   
    53    22    24 1   
    54    22    62 1   
    55    22    63 1   
    56    23    34 1   
    57    23    64 1   
    58    24    25 1   
    59    25    26 1   
    60    25    65 1   
    61    25    66 1   
    62    26    27 1   
    63    26    31 1   
    64    27    28 1   
    65    27    67 1   
    66    28    29 1   
    67    28    68 1   
    68    29    30 1   
    69    29    69 1   
    70    30    31 1   
    71    30    70 1   
    72    31    71 1   
    73    32    33 1   
    74    32    34 1   
    75    34    58 1   
@<TRIPOS>SUBSTRUCTURE
     1 Y14         1 TEMP              0 ****  ****    0 ROOT
