@<TRIPOS>MOLECULE
molecule
   71    74     1     0     0
SMALL
bcc


@<TRIPOS>ATOM
      1 C01          0.0000     0.0000     0.0000 c          1 Y14       0.612100
      2 C02         -2.1410    -0.4870     1.0960 c3         1 Y14      -0.258500
      3 C03         -2.5220     0.0000     2.4990 c3         1 Y14      -0.271600
      4 C04         -0.4520    -0.7770     3.4350 c3         1 Y14      -0.271600
      5 C05          0.0340    -1.3040     2.0780 c3         1 Y14      -0.258500
      6 O06          1.2160     0.0000     0.0000 o          1 Y14      -0.609100
      7 O07         -1.8810    -0.8260     3.4740 os         1 Y14      -0.009600
      8 N08         -0.6740    -0.5740     1.0160 n          1 Y14      -0.017800
      9 N09         -0.6730     0.5780    -1.0150 ns         1 Y14      -0.583900
     10 C10          0.0550     1.1100    -2.1700 c3         1 Y14       0.043700
     11 C11          0.2310     0.0060    -3.2140 c3         1 Y14      -0.092400
     12 C12          1.1030     0.5220    -4.3600 c3         1 Y14      -0.086700
     13 C13          2.5220     0.7750    -3.8470 c3         1 Y14      -0.074900
     14 C14          3.3940     1.2920    -4.9940 c3         1 Y14      -0.078400
     15 C15          3.4340     0.2500    -6.1130 c3         1 Y14      -0.078400
     16 C16          2.0150    -0.0020    -6.6260 c3         1 Y14      -0.078400
     17 C17          1.1430    -0.5190    -5.4800 c3         1 Y14      -0.074900
     18 C18         -0.7220     2.2520    -2.7710 c          1 Y14       0.659100
     19 O19         -1.9040     2.3750    -2.5290 o          1 Y14      -0.600100
     20 C20          0.2970     5.5250    -4.5430 c3         1 Y14      -0.044200
     21 C21         -1.1460     5.4130    -2.5650 c3         1 Y14      -0.144400
     22 C22         -0.4150     6.7680    -2.6850 c3         1 Y14       0.026800
     23 N23         -0.1030     3.1370    -3.5770 ns         1 Y14      -0.626900
     24 N24          0.7850     6.4730    -3.5090 n3         1 Y14      -0.617600
     25 C25          1.3140     7.6970    -4.1250 c3         1 Y14      -0.116900
     26 C26          2.0190     8.5230    -3.0810 ca         1 Y14      -0.175300
     27 C27          3.3680     8.3350    -2.8460 ca         1 Y14      -0.122000
     28 C28          4.0150     9.0920    -1.8870 ca         1 Y14      -0.123500
     29 C29          3.3130    10.0370    -1.1630 ca         1 Y14      -0.100000
     30 C30          1.9640    10.2250    -1.3970 ca         1 Y14      -0.123500
     31 C31          1.3180     9.4710    -2.3600 ca         1 Y14      -0.122000
     32 C32         -1.8260     4.2510    -4.6420 c1         1 Y14       0.197700
     33 N33         -2.7060     4.0000    -5.3150 n1         1 Y14      -0.339800
     34 C34         -0.6780     4.5960    -3.7870 c3         1 Y14       0.323500
     35 H021        -1.0830    -0.3130     0.9410 h1         1 Y14       0.131450
     36 H022        -2.7070     0.0780     0.3650 h1         1 Y14       0.131450
     37 H031        -3.5920     0.1620     2.5350 h1         1 Y14       0.150700
     38 H032        -2.2530    -0.7630     3.2190 h1         1 Y14       0.150700
     39 H041        -1.4930    -1.0480     3.5630 h1         1 Y14       0.150700
     40 H042         0.1350    -1.2380     4.2200 h1         1 Y14       0.150700
     41 H051        -0.2790    -0.6160     1.3030 h1         1 Y14       0.131450
     42 H052         1.1160    -1.3580     2.0910 h1         1 Y14       0.131450
     43 HN09        -1.6740     0.5840    -1.0120 hn         1 Y14       0.335500
     44 H10          1.0280     1.4630    -1.8510 h1         1 Y14       0.097700
     45 H111        -0.7420    -0.3480    -3.5330 hc         1 Y14       0.064200
     46 H112         0.7890    -0.8150    -2.7820 hc         1 Y14       0.064200
     47 H12          0.6900     1.4470    -4.7450 hc         1 Y14       0.058700
     48 H131         2.4810     1.5070    -3.0500 hc         1 Y14       0.044950
     49 H132         2.9250    -0.1530    -3.4600 hc         1 Y14       0.044950
     50 H141         4.4200     1.3570    -4.6520 hc         1 Y14       0.040450
     51 H142         3.0500     2.2790    -5.2790 hc         1 Y14       0.040450
     52 H151         3.9550     0.6710    -6.9640 hc         1 Y14       0.042700
     53 H152         3.9720    -0.6220    -5.7610 hc         1 Y14       0.042700
     54 H161         1.6590     0.8900    -7.1250 hc         1 Y14       0.040450
     55 H162         2.0390    -0.8220    -7.3340 hc         1 Y14       0.040450
     56 H171         0.1400    -0.6590    -5.8640 hc         1 Y14       0.044950
     57 H172         1.5050    -1.4560    -5.0740 hc         1 Y14       0.044950
     58 H201         0.4260     4.5040    -4.2040 h1         1 Y14       0.118200
     59 H202         0.8220     5.6870    -5.4760 h1         1 Y14       0.118200
     60 H211        -1.6300     5.3340    -1.5990 hc         1 Y14       0.103200
     61 H212        -1.8710     5.3080    -3.3640 hc         1 Y14       0.103200
     62 H221        -1.0440     7.5660    -2.3080 h1         1 Y14       0.099200
     63 H222         0.5220     6.7350    -2.1440 h1         1 Y14       0.099200
     64 HN23         0.8910     3.1050    -3.6850 hn         1 Y14       0.303500
     65 H251         1.5240     8.4280    -3.3540 h1         1 Y14       0.185200
     66 H252         2.2270     7.4660    -4.6620 h1         1 Y14       0.185200
     67 H27          3.9190     7.5940    -3.4140 ha         1 Y14       0.157500
     68 H28          5.0730     8.9450    -1.7030 ha         1 Y14       0.143500
     69 H29          3.8200    10.6300    -0.4110 ha         1 Y14       0.142000
     70 H30          1.4140    10.9650    -0.8290 ha         1 Y14       0.143500
     71 H31          0.2610     9.6210    -2.5470 ha         1 Y14       0.157500
@<TRIPOS>BOND
     1     4     7 1
     2     4     5 1
     3     7     3 1
     4     5     8 1
     5    14    13 1
     6    14    15 1
     7     3     2 1
     8    13    12 1
     9     8     2 1
    10     8     1 1
    11    15    16 1
    12    12    11 1
    13    12    17 1
    14     9     1 1
    15     9    10 1
    16    11    10 1
    17    16    17 1
    18     1     6 2
    19    19    18 2
    20    10    18 1
    21    18    23 1
    22    23    34 1
    23    32    33 3
    24    32    34 1
    25    21    34 1
    26    21    22 1
    27    34    20 1
    28    22    24 1
    29    20    24 1
    30    24    25 1
    31    25    26 1
    32    31    26 ar
    33    31    30 ar
    34    26    27 ar
    35    30    29 ar
    36    27    28 ar
    37    29    28 ar
    38     2    35 1
    39     2    36 1
    40     3    37 1
    41     3    38 1
    42     4    39 1
    43     4    40 1
    44     5    41 1
    45     5    42 1
    46     9    43 1
    47    10    44 1
    48    11    45 1
    49    11    46 1
    50    12    47 1
    51    13    48 1
    52    13    49 1
    53    14    50 1
    54    14    51 1
    55    15    52 1
    56    15    53 1
    57    16    54 1
    58    16    55 1
    59    17    56 1
    60    17    57 1
    61    20    58 1
    62    20    59 1
    63    21    60 1
    64    21    61 1
    65    22    62 1
    66    22    63 1
    67    23    64 1
    68    25    65 1
    69    25    66 1
    70    27    67 1
    71    28    68 1
    72    29    69 1
    73    30    70 1
    74    31    71 1
@<TRIPOS>SUBSTRUCTURE
     1 Y14         1 TEMP              0 ****  ****    0 ROOT
