@<TRIPOS>MOLECULE
Y15
   69    71     1     0     0
SMALL
bcc


@<TRIPOS>ATOM
      1 C01          0.0000     0.0000     0.0000 c          1 Y15       0.333100
      2 C02         -2.1410    -0.4890     1.0950 c3         1 Y15      -0.370000
      3 C03         -2.5250     0.0000     2.4960 c3         1 Y15      -0.271600
      4 C04         -0.4540    -0.7710     3.4360 c3         1 Y15      -0.271600
      5 C05          0.0350    -1.2990     2.0820 c3         1 Y15      -0.370000
      6 O06          1.2160     0.0000     0.0000 o          1 Y15      -0.642100
      7 O07         -1.8830    -0.8220     3.4740 os         1 Y15       0.709400
      8 N08         -0.6740    -0.5720     1.0160 n          1 Y15       1.631200
      9 N09         -0.6740     0.5780    -1.0140 ns         1 Y15      -0.174900
     10 C10          0.0540     1.1090    -2.1700 c3         1 Y15      -0.062300
     11 C11          0.2200     0.0070    -3.2180 c3         1 Y15      -0.045400
     12 C12          1.0850     0.5250    -4.3700 c3         1 Y15      -0.064700
     13 C13          2.5020     0.7970    -3.8600 c3         1 Y15      -0.029400
     14 C14          3.3670     1.3140    -5.0110 c3         1 Y15      -0.021900
     15 C15          3.4170     0.2650    -6.1230 c3         1 Y15      -0.022400
     16 C16          2.0010    -0.0070    -6.6320 c3         1 Y15      -0.021900
     17 C17          1.1360    -0.5250    -5.4810 c3         1 Y15      -0.029400
     18 C18         -0.7170     2.2580    -2.7650 c          1 Y15       0.578100
     19 O19         -1.8940     2.3950    -2.5080 o          1 Y15      -0.630100
     20 C20          0.1020     5.1290    -4.9830 c3         1 Y15       0.199400
     21 C21         -1.2790     5.1630    -2.9010 c3         1 Y15      -0.034100
     22 N22         -0.0980     3.1330    -3.5830 ns         1 Y15      -0.209900
     23 O23         -0.6030     6.2720    -5.4690 os         1 Y15      -0.396600
     24 C24          0.1740     7.1130    -6.3250 c3         1 Y15       0.275700
     25 C25         -0.6650     8.2800    -6.7770 ca         1 Y15      -0.114300
     26 C26         -0.6840     9.4470    -6.0340 ca         1 Y15      -0.075000
     27 C27         -1.4520    10.5180    -6.4490 ca         1 Y15      -0.104000
     28 C28         -2.2020    10.4240    -7.6070 ca         1 Y15      -0.089000
     29 C29         -2.1830     9.2590    -8.3490 ca         1 Y15      -0.104000
     30 C30         -1.4100     8.1890    -7.9380 ca         1 Y15      -0.075000
     31 C31         -1.9950     3.8670    -4.8540 c1         1 Y15       0.187700
     32 N32         -2.9110     3.5450    -5.4450 n1         1 Y15      -0.351800
     33 C33         -0.8210     4.3050    -4.0820 c3         1 Y15       0.146500
     34 H021        -1.0840    -0.3130     0.9410 h1         1 Y15      -0.169300
     35 H022        -2.7070     0.0730     0.3620 h1         1 Y15      -0.169300
     36 H031        -2.2540    -0.7610     3.2180 h1         1 Y15      -0.047800
     37 H032        -3.5960     0.1590     2.5310 h1         1 Y15      -0.047800
     38 H041         0.1330    -1.2280     4.2230 h1         1 Y15      -0.047800
     39 H042        -1.4950    -1.0450     3.5630 h1         1 Y15      -0.047800
     40 H051        -0.2780    -0.6120     1.3050 h1         1 Y15      -0.169300
     41 H052         1.1170    -1.3500     2.0970 h1         1 Y15      -0.169300
     42 HN09        -1.6490     0.7830    -0.9150 hn         1 Y15       0.217500
     43 H10          1.0300     1.4550    -1.8530 h1         1 Y15       0.076700
     44 H111        -0.6290     0.0180    -3.8910 hc         1 Y15       0.040700
     45 H112         0.2770    -0.9560    -2.7240 hc         1 Y15       0.040700
     46 H12          0.6620     1.4420    -4.7610 hc         1 Y15       0.030700
     47 H131         2.4540     1.5350    -3.0680 hc         1 Y15       0.021950
     48 H132         2.9160    -0.1230    -3.4660 hc         1 Y15       0.021950
     49 H141         4.3930     1.3940    -4.6700 hc         1 Y15       0.012200
     50 H142         3.0120     2.2950    -5.3030 hc         1 Y15       0.012200
     51 H151         3.9640    -0.5990    -5.7650 hc         1 Y15       0.015700
     52 H152         3.9330     0.6850    -6.9780 hc         1 Y15       0.015700
     53 H161         2.0340    -0.8310    -7.3350 hc         1 Y15       0.012200
     54 H162         1.6340     0.8780    -7.1370 hc         1 Y15       0.012200
     55 H171         0.1340    -0.6810    -5.8620 hc         1 Y15       0.021950
     56 H172         1.5090    -1.4550    -5.0680 hc         1 Y15       0.021950
     57 H201         0.9790     5.4510    -4.4340 h1         1 Y15       0.001200
     58 H202         0.4060     4.5100    -5.8180 h1         1 Y15       0.001200
     59 H211        -1.8980     4.5680    -2.2400 hc         1 Y15       0.033367
     60 H212        -1.8510     6.0070    -3.2680 hc         1 Y15       0.033367
     61 H213        -0.4130     5.5230    -2.3580 hc         1 Y15       0.033367
     62 HN22         0.8520     2.9770    -3.8550 hn         1 Y15       0.201500
     63 H241         1.0390     7.4770    -5.7840 h1         1 Y15      -0.005800
     64 H242         0.4990     6.5460    -7.1890 h1         1 Y15      -0.005800
     65 H26         -0.0960     9.5210    -5.1270 ha         1 Y15       0.105500
     66 H27         -1.4670    11.4310    -5.8670 ha         1 Y15       0.104500
     67 H28         -2.8050    11.2630    -7.9310 ha         1 Y15       0.103000
     68 H29         -2.7700     9.1850    -9.2570 ha         1 Y15       0.104500
     69 H30         -1.3910     7.2780    -8.5230 ha         1 Y15       0.105500
@<TRIPOS>BOND
     1     1     6 2   
     2     1     8 1   
     3     1     9 1   
     4     2     3 1   
     5     2     8 1   
     6     2    34 1   
     7     2    35 1   
     8     3     7 1   
     9     3    36 1   
    10     3    37 1   
    11     4     5 1   
    12     4     7 1   
    13     4    38 1   
    14     4    39 1   
    15     5     8 1   
    16     5    40 1   
    17     5    41 1   
    18     9    10 1   
    19     9    42 1   
    20    10    11 1   
    21    10    18 1   
    22    10    43 1   
    23    11    12 1   
    24    11    44 1   
    25    11    45 1   
    26    12    13 1   
    27    12    17 1   
    28    12    46 1   
    29    13    14 1   
    30    13    47 1   
    31    13    48 1   
    32    14    15 1   
    33    14    49 1   
    34    14    50 1   
    35    15    16 1   
    36    15    51 1   
    37    15    52 1   
    38    16    17 1   
    39    16    53 1   
    40    16    54 1   
    41    17    55 1   
    42    17    56 1   
    43    18    19 2   
    44    18    22 1   
    45    20    23 1   
    46    20    33 1   
    47    20    57 1   
    48    20    58 1   
    49    21    33 1   
    50    21    59 1   
    51    21    60 1   
    52    21    61 1   
    53    22    33 1   
    54    22    62 1   
    55    23    24 1   
    56    24    25 1   
    57    24    63 1   
    58    24    64 1   
    59    25    26 ar  
    60    25    30 ar  
    61    26    27 ar  
    62    26    65 1   
    63    27    28 ar  
    64    27    66 1   
    65    28    29 ar  
    66    28    67 1   
    67    29    30 ar  
    68    29    68 1   
    69    30    69 1   
    70    31    32 3   
    71    31    33 1   
@<TRIPOS>SUBSTRUCTURE
     1 Y15         1 TEMP              0 ****  ****    0 ROOT
