@<TRIPOS>MOLECULE
Y16
   48    43     1     0     0
SMALL
bcc


@<TRIPOS>ATOM
      1 N1          0.4850   -1.0440   -0.4860 n4        1 Y16      0.080000
      2 O1         -0.5510    2.1940   -5.7940 oh        1 Y16     -0.416000
      3 N2         -1.4960    1.5520    1.3000 n         1 Y16     -0.408000
      4 O2          0.6000    1.4580   -3.6150 o         1 Y16     -0.343000
      5 O3          2.0620   -0.6330   -2.8050 oh        1 Y16     -0.357000
      6 O4          2.5600   -1.6890    0.3870 o         1 Y16     -0.268000
      7 O5         -0.3610    1.6290   -0.6850 o         1 Y16     -0.550000
      8 O6          4.1730    0.6400    1.0520 oh        1 Y16     -0.317000
      9 C01         2.7690    2.8360   -7.5900 c3        1 Y16     -0.171000
     10 C04         4.6190    1.9340   -4.5320 c1        1 Y16      0.135000
     11 C05         2.3750    0.6410   -2.2510 c3        1 Y16     -0.049000
     12 C06         1.3120    1.6620   -2.6270 c2        1 Y16      0.208000
     13 C07         2.5270    0.4810   -0.7340 c3        1 Y16     -0.161000
     14 C08         1.6100    2.0890   -8.2700 c3        1 Y16     -0.212000
     15 C09         2.5270    4.2810   -7.8240 c1        1 Y16     -0.005000
     16 C10         4.0930    2.3580   -8.1660 c3        1 Y16     -0.212000
     17 C11         1.9500   -0.8240   -0.2380 c2        1 Y16      0.267000
     18 C12        -0.3160   -0.4140    0.5120 c2        1 Y16     -0.672000
     19 C13        -0.7180    0.9430    0.3270 c2        1 Y16      0.374000
     20 HN1         0.2960   -2.0490   -0.4870 hn        1 Y16      0.237000
     21 HO1        -0.5790    2.7780   -5.0290 ho        1 Y16      0.208000
     22 HN2        -1.9140    2.4180    1.0650 hn        1 Y16      0.207000
     23 HN2A       -1.9710    0.9810    1.9520 hn        1 Y16      0.207000
     24 HO2        -0.7180    1.3250   -5.4160 ho        1 Y16      0.208000
     25 HO3         1.8280   -0.4890   -3.7350 ho        1 Y16      0.237000
     26 H02         1.6460    2.7210   -5.6990 ha        1 Y16      0.166000
     27 H03         1.2880    0.4280   -5.8230 ha        1 Y16      0.009500
     28 H04         0.9710   -0.1530   -5.6750 ha        1 Y16      0.009500
     29 H05         3.3550    1.0010   -2.6990 h1        1 Y16      0.145000
     30 H06         1.2440    2.5750   -2.0010 h4        1 Y16      0.155000
     31 H07         1.9520    1.3110   -0.2160 hc        1 Y16      0.185000
     32 H08         1.5880    2.3310   -9.3580 hc        1 Y16      0.096167
     33 H08A        0.6330    2.3700   -7.8000 hc        1 Y16      0.096167
     34 H08B        1.7620    0.9900   -8.1460 hc        1 Y16      0.096167
     35 H09         4.1520    5.2960   -6.8300 ha        1 Y16      0.009500
     36 H09A        4.5480    5.0830   -7.3450 ha        1 Y16      0.009500
     37 H09B        2.7760    4.6050   -8.8490 ha        1 Y16      0.041000
     38 H10         4.9450    2.8770   -7.6620 hc        1 Y16      0.096167
     39 H10A        4.1330    2.5700   -9.2620 hc        1 Y16      0.096167
     40 H10B        4.2100    1.2590   -8.0090 hc        1 Y16      0.096167
     41 H12        -0.5080   -0.9990    1.4110 hx        1 Y16      0.165000
     42 H12A        0.2640   -0.6400   -1.4090 hn        1 Y16      0.237000
     43 H14         4.4290    1.5520   -0.7250 h1        1 Y16      0.107000
     44 H14A        3.9930   -0.2420    1.4060 ho        1 Y16      0.215000
     45 H14B        4.5750   -0.2810   -0.7850 h1        1 Y16      0.107000
     46 C14         4.0080    0.5810   -0.3450 c3        1 Y16     -0.011000
     47 C03         3.6830    2.2570   -5.3260 c1        1 Y16     -0.600000
     48 C02         2.6730    2.5950   -6.1140 c2        1 Y16      0.246000
@<TRIPOS>BOND
     1    1   17 1
     2    1   18 1
     3    1   20 1
     4    1   42 1
     5    2   21 1
     6    2   24 1
     7    3   19 1
     8    3   22 1
     9    3   23 1
    10    4   12 1
    11    5   11 1
    12    5   25 1
    13    6   17 1
    14    7   19 1
    15    8   44 1
    16    8   46 1
    17    9   14 1
    18    9   15 1
    19    9   16 1
    20    9   48 1
    21   10   47 1
    22   11   12 1
    23   11   13 1
    24   11   29 1
    25   12   30 1
    26   13   17 1
    27   13   31 1
    28   13   46 1
    29   14   32 1
    30   14   33 1
    31   14   34 1
    32   15   37 1
    33   16   38 1
    34   16   39 1
    35   16   40 1
    36   18   19 1
    37   18   41 1
    38   26   48 1
    39   27   28 1
    40   35   36 1
    41   43   46 1
    42   45   46 1
    43   47   48 1
@<TRIPOS>SUBSTRUCTURE
     1 Y16         1 TEMP              0 ****  ****    0 ROOT
