@<TRIPOS>MOLECULE
molecule
   43    43     1     0     0
SMALL
bcc


@<TRIPOS>ATOM
      1 O2           0.0000     0.0000     0.0000 o          1 Y19      -0.603500
      2 C2           1.2170     0.0000     0.0000 c          1 Y19       0.857900
      3 N3           1.8370     0.0000     1.1860 ns         1 Y19      -0.601500
      4 C4           3.1860     0.0000     1.2770 c          1 Y19       0.695500
      5 O4           3.7480    -0.0010     2.3500 o          1 Y19      -0.562500
      6 N1           1.8350    -0.0050    -1.1830 ne         1 Y19      -0.760100
      7 C6           3.1420    -0.0060    -1.2990 c2         1 Y19       0.696200
      8 C5           3.9660    -0.0000    -0.0250 c3         1 Y19      -0.062600
      9 N13          4.8280    -1.1840    -0.0400 ns         1 Y19      -0.592900
     10 C14          6.0380    -1.1440     0.5520 c          1 Y19       0.656100
     11 C15          6.9250    -2.3620     0.5370 c3         1 Y19      -0.154400
     12 C16          8.2310    -2.0510     1.2730 c3         1 Y19      -0.078100
     13 O23          6.4120    -0.1280     1.0980 o          1 Y19      -0.573100
     14 N7           3.7340    -0.0110    -2.5130 nu         1 Y19      -0.817200
     15 C8           2.9160    -0.0160    -3.7270 c3         1 Y19       0.210800
     16 C9           3.8270    -0.0210    -4.9570 c3         1 Y19       0.121100
     17 O9           4.6520     1.1460    -4.9420 oh         1 Y19      -0.573800
     18 C10          2.9720    -0.0270    -6.2250 c3         1 Y19       0.147100
     19 O10          2.1470    -1.1930    -6.2390 oh         1 Y19      -0.604800
     20 C11          3.8840    -0.0310    -7.4550 c3         1 Y19       0.143100
     21 O11          4.7080     1.1350    -7.4400 oh         1 Y19      -0.583800
     22 C12          3.0290    -0.0370    -8.7230 c3         1 Y19       0.112400
     23 O12          3.8760    -0.1600    -9.8680 oh         1 Y19      -0.614800
     24 H3           1.2910    -0.0020     2.0240 hn         1 Y19       0.352500
     25 H5           4.5940     0.8820    -0.0380 h1         1 Y19       0.124700
     26 H7           4.7330    -0.0020    -2.5820 hn         1 Y19       0.451800
     27 H13          4.5110    -2.0290    -0.4740 hn         1 Y19       0.325500
     28 H151         6.4200    -3.1830     1.0310 hc         1 Y19       0.060200
     29 H152         7.1450    -2.6360    -0.4870 hc         1 Y19       0.060200
     30 H161         8.8140    -2.9590     1.3740 hc         1 Y19       0.047700
     31 H162         8.0060    -1.6560     2.2560 hc         1 Y19       0.047700
     32 H163         8.7970    -1.3190     0.7100 hc         1 Y19       0.047700
     33 H8C1         2.2910     0.8680    -3.7450 h1         1 Y19       0.079700
     34 H8C2         2.2910    -0.9010    -3.7370 h1         1 Y19       0.079700
     35 H9           4.4520    -0.9060    -4.9390 h1         1 Y19       0.043700
     36 HA           5.5280     0.9090    -4.6870 ho         1 Y19       0.400000
     37 H10          2.3470     0.8570    -6.2430 h1         1 Y19       0.065700
     38 HB           1.2410    -0.9370    -6.2880 ho         1 Y19       0.417000
     39 H11          4.5100    -0.9160    -7.4370 h1         1 Y19       0.049700
     40 HC           5.5170     0.9540    -7.8900 ho         1 Y19       0.413000
     41 H121         2.4690     0.8890    -8.7850 h1         1 Y19       0.034200
     42 H122         2.3410    -0.8730    -8.6910 h1         1 Y19       0.034200
     43 H12          3.3470    -0.2870   -10.6380 ho         1 Y19       0.409000
@<TRIPOS>BOND
     1     1     2 2
     2     2     3 1
     3     2     6 1
     4     3     4 1
     5     4     5 2
     6     4     8 1
     7     6     7 2
     8     7     8 1
     9     7    14 1
    10     8     9 1
    11     9    10 1
    12    10    11 1
    13    10    13 2
    14    11    12 1
    15    14    15 1
    16    15    16 1
    17    16    17 1
    18    16    18 1
    19    18    19 1
    20    18    20 1
    21    20    21 1
    22    20    22 1
    23    22    23 1
    24     3    24 1
    25     8    25 1
    26    14    26 1
    27     9    27 1
    28    11    28 1
    29    11    29 1
    30    12    30 1
    31    12    31 1
    32    12    32 1
    33    15    33 1
    34    15    34 1
    35    16    35 1
    36    17    36 1
    37    18    37 1
    38    19    38 1
    39    20    39 1
    40    21    40 1
    41    22    41 1
    42    22    42 1
    43    23    43 1
@<TRIPOS>SUBSTRUCTURE
     1 Y19         1 TEMP              0 ****  ****    0 ROOT
