@<TRIPOS>MOLECULE
Y1N
   53    55     1     0     0
SMALL
bcc


@<TRIPOS>ATOM
      1 C01          0.0000     0.0000     0.0000 c3         1 Y1N       0.001400
      2 C02          1.5300     0.0000     0.0000 c3         1 Y1N       0.045800
      3 C03          2.0400     0.0000     1.4420 c3         1 Y1N       0.001400
      4 O04          2.0060    -1.1680    -0.6730 os         1 Y1N      -0.301900
      5 C05          3.3530    -1.3400    -0.7330 ca         1 Y1N       0.244100
      6 C06          3.8820    -2.5070    -1.2640 ca         1 Y1N      -0.154000
      7 C07          5.2500    -2.6790    -1.3240 ca         1 Y1N      -0.095000
      8 C08          6.0940    -1.6890    -0.8550 ca         1 Y1N      -0.180300
      9 C09          7.5880    -1.8790    -0.9200 c3         1 Y1N       0.045900
     10 C10          8.1120    -1.3390    -2.2520 c3         1 Y1N       0.193400
     11 O11          9.5290    -1.5190    -2.3160 os         1 Y1N      -0.309900
     12 C12         10.1550    -1.0900    -3.4410 ca         1 Y1N       0.196100
     13 C13         11.5310    -1.2360    -3.5650 ca         1 Y1N      -0.197000
     14 C14         12.1710    -0.8010    -4.7050 ca         1 Y1N      -0.017500
     15 C15         11.4350    -0.2130    -5.7370 ca         1 Y1N      -0.009600
     16 N16         12.0640     0.2190    -6.8690 ne         1 Y1N      -0.139400
     17 N17         11.3830     0.7620    -7.8190 nf         1 Y1N      -0.211400
     18 C18         12.0140     1.1950    -8.9530 ca         1 Y1N       0.105400
     19 C19         11.2780     1.7830    -9.9850 ca         1 Y1N      -0.080000
     20 C20         11.9210     2.2170   -11.1250 ca         1 Y1N      -0.120000
     21 C21         13.2930     2.0700   -11.2480 ca         1 Y1N      -0.098000
     22 C22         14.0280     1.4890   -10.2300 ca         1 Y1N      -0.120000
     23 C23         13.3980     1.0550    -9.0810 ca         1 Y1N      -0.080000
     24 C24         10.0490    -0.0680    -5.6080 ca         1 Y1N      -0.017500
     25 C25          9.4170    -0.5110    -4.4670 ca         1 Y1N      -0.197000
     26 C26          5.5700    -0.5250    -0.3250 ca         1 Y1N      -0.095000
     27 C27          4.2010    -0.3450    -0.2670 ca         1 Y1N      -0.154000
     28 C28          2.0330     1.2300    -0.7110 c          1 Y1N       0.956600
     29 O29          2.7270     1.1170    -1.6930 o          1 Y1N      -0.880300
     30 O30          1.7090     2.4490    -0.2530 o          1 Y1N      -0.880300
     31 H011        -0.3610     0.0860    -1.0180 hc         1 Y1N       0.004033
     32 H012        -0.3610    -0.9250     0.4340 hc         1 Y1N       0.004033
     33 H013        -0.3610     0.8380     0.5840 hc         1 Y1N       0.004033
     34 H031         2.8480     0.7150     1.5400 hc         1 Y1N       0.004033
     35 H032         2.4000    -0.9890     1.6980 hc         1 Y1N       0.004033
     36 H033         1.2320     0.2740     2.1100 hc         1 Y1N       0.004033
     37 H06          3.2210    -3.2960    -1.6030 ha         1 Y1N       0.130500
     38 H27          4.2700     0.5880     0.2790 ha         1 Y1N       0.130500
     39 H07          5.6630    -3.5900    -1.7400 ha         1 Y1N       0.091000
     40 H091         8.0560    -1.3430    -0.1040 hc         1 Y1N       0.014200
     41 H092         7.8210    -2.9340    -0.8410 hc         1 Y1N       0.014200
     42 H26          6.2330     0.2510     0.0380 ha         1 Y1N       0.091000
     43 H101         7.6430    -1.8750    -3.0680 h1         1 Y1N       0.013200
     44 H102         7.8780    -0.2840    -2.3320 h1         1 Y1N       0.013200
     45 H13         12.1020    -1.6910    -2.7650 ha         1 Y1N       0.128000
     46 H25          8.3440    -0.3990    -4.3650 ha         1 Y1N       0.128000
     47 H14         13.2440    -0.9150    -4.8010 ha         1 Y1N       0.116000
     48 H24          9.4740     0.3850    -6.4060 ha         1 Y1N       0.116000
     49 H19         10.1960     1.8150    -9.9290 ha         1 Y1N       0.120000
     50 H23         14.1820     0.6790    -8.4350 ha         1 Y1N       0.120000
     51 H20         11.3530     2.6740   -11.9260 ha         1 Y1N       0.101000
     52 H21         13.7920     2.4080   -12.1480 ha         1 Y1N       0.096000
     53 H22         15.1000     1.3740   -10.3350 ha         1 Y1N       0.101000
@<TRIPOS>BOND
     1     1     2 1   
     2     1    31 1   
     3     1    32 1   
     4     1    33 1   
     5     2     3 1   
     6     2     4 1   
     7     2    28 1   
     8     3    34 1   
     9     3    35 1   
    10     3    36 1   
    11     4     5 1   
    12     5     6 ar  
    13     5    27 ar  
    14     6     7 ar  
    15     6    37 1   
    16     7     8 ar  
    17     7    39 1   
    18     8     9 1   
    19     8    26 ar  
    20     9    10 1   
    21     9    40 1   
    22     9    41 1   
    23    10    11 1   
    24    10    43 1   
    25    10    44 1   
    26    11    12 1   
    27    12    13 ar  
    28    12    25 ar  
    29    13    14 ar  
    30    13    45 1   
    31    14    15 ar  
    32    14    47 1   
    33    15    16 1   
    34    15    24 ar  
    35    16    17 2   
    36    17    18 1   
    37    18    19 ar  
    38    18    23 ar  
    39    19    20 ar  
    40    19    49 1   
    41    20    21 ar  
    42    20    51 1   
    43    21    22 ar  
    44    21    52 1   
    45    22    23 ar  
    46    22    53 1   
    47    23    50 1   
    48    24    25 ar  
    49    24    48 1   
    50    25    46 1   
    51    26    27 ar  
    52    26    42 1   
    53    27    38 1   
    54    28    29 1   
    55    28    30 1   
@<TRIPOS>SUBSTRUCTURE
     1 Y1N         1 TEMP              0 ****  ****    0 ROOT
