@<TRIPOS>MOLECULE
molecule
   53    55     1     0     0
SMALL
bcc


@<TRIPOS>ATOM
      1 C01          0.0000     0.0000     0.0000 c3         1 Y1N      -0.077100
      2 C02          1.5300     0.0000     0.0000 c3         1 Y1N       0.037800
      3 C03          2.0400     0.0000     1.4420 c3         1 Y1N      -0.077100
      4 O04          2.0060    -1.1680    -0.6730 os         1 Y1N      -0.324900
      5 C05          3.3530    -1.3400    -0.7330 ca         1 Y1N       0.225100
      6 C06          3.8820    -2.5070    -1.2640 ca         1 Y1N      -0.165500
      7 C07          5.2500    -2.6790    -1.3240 ca         1 Y1N      -0.117000
      8 C08          6.0940    -1.6890    -0.8550 ca         1 Y1N      -0.169300
      9 C09          7.5880    -1.8790    -0.9200 c3         1 Y1N      -0.017100
     10 C10          8.1120    -1.3390    -2.2520 c3         1 Y1N       0.131400
     11 O11          9.5290    -1.5190    -2.3160 os         1 Y1N      -0.332900
     12 C12         10.1550    -1.0900    -3.4410 ca         1 Y1N       0.186100
     13 C13         11.5310    -1.2360    -3.5650 ca         1 Y1N      -0.211000
     14 C14         12.1710    -0.8010    -4.7050 ca         1 Y1N      -0.048000
     15 C15         11.4350    -0.2130    -5.7370 ca         1 Y1N       0.035400
     16 N16         12.0640     0.2190    -6.8690 ne         1 Y1N      -0.201400
     17 N17         11.3830     0.7620    -7.8190 nf         1 Y1N      -0.252400
     18 C18         12.0140     1.1950    -8.9530 ca         1 Y1N       0.132400
     19 C19         11.2780     1.7830    -9.9850 ca         1 Y1N      -0.101500
     20 C20         11.9210     2.2170   -11.1250 ca         1 Y1N      -0.146500
     21 C21         13.2930     2.0700   -11.2480 ca         1 Y1N      -0.124000
     22 C22         14.0280     1.4890   -10.2300 ca         1 Y1N      -0.146500
     23 C23         13.3980     1.0550    -9.0810 ca         1 Y1N      -0.101500
     24 C24         10.0490    -0.0680    -5.6080 ca         1 Y1N      -0.048000
     25 C25          9.4170    -0.5110    -4.4670 ca         1 Y1N      -0.211000
     26 C26          5.5700    -0.5250    -0.3250 ca         1 Y1N      -0.117000
     27 C27          4.2010    -0.3450    -0.2670 ca         1 Y1N      -0.165500
     28 C28          2.0330     1.2300    -0.7110 c          1 Y1N       0.873600
     29 O29          2.7270     1.1170    -1.6930 o          1 Y1N      -0.828800
     30 O30          1.7090     2.4490    -0.2530 o          1 Y1N      -0.828800
     31 H011        -0.3610    -0.9070     0.4700 hc         1 Y1N       0.033367
     32 H012        -0.3610     0.8610     0.5500 hc         1 Y1N       0.033367
     33 H013        -0.3610     0.0460    -1.0200 hc         1 Y1N       0.033367
     34 H031         1.2290     0.2620     2.1120 hc         1 Y1N       0.033367
     35 H032         2.4110    -0.9860     1.6940 hc         1 Y1N       0.033367
     36 H033         2.8400     0.7240     1.5430 hc         1 Y1N       0.033367
     37 H06          3.2210    -3.2960    -1.6030 ha         1 Y1N       0.150000
     38 H27          4.2420     0.5990     0.2630 ha         1 Y1N       0.150000
     39 H07          5.6630    -3.5890    -1.7410 ha         1 Y1N       0.113500
     40 H091         8.0560    -1.3440    -0.1040 hc         1 Y1N       0.046700
     41 H092         7.8210    -2.9340    -0.8420 hc         1 Y1N       0.046700
     42 H26          6.2330     0.2510     0.0370 ha         1 Y1N       0.113500
     43 H101         7.8780    -0.2840    -2.3310 h1         1 Y1N       0.048200
     44 H102         7.6430    -1.8740    -3.0690 h1         1 Y1N       0.048200
     45 H13         12.1020    -1.6910    -2.7650 ha         1 Y1N       0.150500
     46 H25          8.3440    -0.3990    -4.3650 ha         1 Y1N       0.150500
     47 H14         13.2440    -0.9150    -4.8010 ha         1 Y1N       0.149000
     48 H24          9.4740     0.3850    -6.4060 ha         1 Y1N       0.149000
     49 H19         10.2180     1.9660    -9.8580 ha         1 Y1N       0.148000
     50 H23         14.1650     0.6490    -8.4330 ha         1 Y1N       0.148000
     51 H20         11.3530     2.6740   -11.9260 ha         1 Y1N       0.128000
     52 H21         13.7920     2.4120   -12.1460 ha         1 Y1N       0.123000
     53 H22         15.1000     1.3740   -10.3350 ha         1 Y1N       0.128000
@<TRIPOS>BOND
     1     1     2 1
     2     2     3 1
     3     2     4 1
     4     2    28 1
     5     4     5 1
     6     5     6 ar
     7     5    27 ar
     8     6     7 ar
     9     7     8 ar
    10     8     9 1
    11     8    26 ar
    12     9    10 1
    13    10    11 1
    14    11    12 1
    15    12    13 ar
    16    12    25 ar
    17    13    14 ar
    18    14    15 ar
    19    15    16 1
    20    15    24 ar
    21    16    17 2
    22    17    18 1
    23    18    19 ar
    24    18    23 ar
    25    19    20 ar
    26    20    21 ar
    27    21    22 ar
    28    22    23 ar
    29    24    25 ar
    30    26    27 ar
    31    28    29 1
    32    28    30 1
    33     1    31 1
    34     1    32 1
    35     1    33 1
    36     3    34 1
    37     3    35 1
    38     3    36 1
    39     6    37 1
    40    27    38 1
    41     7    39 1
    42     9    40 1
    43     9    41 1
    44    26    42 1
    45    10    43 1
    46    10    44 1
    47    13    45 1
    48    25    46 1
    49    14    47 1
    50    24    48 1
    51    19    49 1
    52    23    50 1
    53    20    51 1
    54    21    52 1
    55    22    53 1
@<TRIPOS>SUBSTRUCTURE
     1 Y1N         1 TEMP              0 ****  ****    0 ROOT
