@<TRIPOS>MOLECULE
molecule
   60    65     1     0     0
SMALL
bcc


@<TRIPOS>ATOM
      1 OBD          0.0000     0.0000     0.0000 o          1 Y1Z      -0.613800
      2 SBB          1.4210     0.0000     0.0000 sy         1 Y1Z       1.419200
      3 OBC          2.1980     0.0000     1.1900 o          1 Y1Z      -0.613800
      4 CBE          1.9190    -1.4170    -0.9200 ca         1 Y1Z      -0.320500
      5 CBF          2.8210    -2.3120    -0.3770 ca         1 Y1Z      -0.025000
      6 CBG          3.2130    -3.4240    -1.0980 ca         1 Y1Z      -0.143000
      7 CBH          2.7020    -3.6410    -2.3640 ca         1 Y1Z      -0.065000
      8 CBI          1.7990    -2.7470    -2.9090 ca         1 Y1Z      -0.146000
      9 CBJ          1.4030    -1.6370    -2.1840 ca         1 Y1Z       0.112400
     10 Cl           0.2640    -0.5180    -2.8650 cl         1 Y1Z      -0.083400
     11 NAU          1.8880     1.3350    -0.8620 nu         1 Y1Z      -0.746500
     12 CAS          3.2490     1.6270    -1.0180 ca         1 Y1Z       0.193600
     13 CAR          3.6710     2.9530    -1.1250 ca         1 Y1Z       0.071600
     14 NAV          2.7340     3.9890    -1.0840 nh         1 Y1Z      -0.620000
     15 CBA          2.7070     4.7270    -2.3560 c3         1 Y1Z       0.128300
     16 CAZ          1.6290     5.8110    -2.2880 c3         1 Y1Z       0.138400
     17 OAY          1.8890     6.6660    -1.1710 os         1 Y1Z      -0.422600
     18 CAX          1.9210     5.9810     0.0830 c3         1 Y1Z       0.138400
     19 CAW          3.0020     4.8980     0.0400 c3         1 Y1Z       0.128300
     20 CAQ          5.0200     3.2440    -1.2730 ca         1 Y1Z      -0.137000
     21 CAP          5.9480     2.2240    -1.3140 ca         1 Y1Z      -0.105000
     22 CAO          5.5330     0.8970    -1.2080 ca         1 Y1Z      -0.116500
     23 CAT          4.1770     0.6010    -1.0580 ca         1 Y1Z      -0.169000
     24 CAG          6.5290    -0.1980    -1.2530 cc         1 Y1Z       0.486800
     25 CAD          6.3410    -1.3200    -2.1830 ca         1 Y1Z      -0.162300
     26 CAC          5.2400    -1.3890    -3.0350 ca         1 Y1Z      -0.095000
     27 CAB          5.1060    -2.4590    -3.8910 ca         1 Y1Z      -0.131000
     28 CAA          6.0550    -3.4730    -3.9120 ca         1 Y1Z      -0.112000
     29 CAF          7.1500    -3.4270    -3.0800 ca         1 Y1Z      -0.096000
     30 CAE          7.3070    -2.3510    -2.2060 ca         1 Y1Z       0.030000
     31 CAJ          8.4520    -2.2480    -1.2970 cc         1 Y1Z      -0.115300
     32 NAI          8.5450    -1.1610    -0.4630 na         1 Y1Z       0.066300
     33 NAH          7.5760    -0.1590    -0.4680 nd         1 Y1Z      -0.461800
     34 NAM          9.5040    -3.0040    -1.0650 nd         1 Y1Z      -0.067000
     35 NAL         10.2310    -2.4630    -0.1520 nd         1 Y1Z      -0.368700
     36 CAK          9.6910    -1.3400     0.2470 cc         1 Y1Z       0.365800
     37 CAN         10.2390    -0.4130     1.3010 c3         1 Y1Z      -0.084400
     38 H1           3.2220    -2.1410     0.6150 ha         1 Y1Z       0.169000
     39 H2           3.9200    -4.1250    -0.6710 ha         1 Y1Z       0.149000
     40 H3           3.0100    -4.5120    -2.9300 ha         1 Y1Z       0.143000
     41 H4           1.3970    -2.9190    -3.9000 ha         1 Y1Z       0.150000
     42 H5           1.1990     1.9150    -1.2980 hn         1 Y1Z       0.480800
     43 H6           3.6730     5.1890    -2.5250 h1         1 Y1Z       0.049700
     44 H7           2.4810     4.0430    -3.1650 h1         1 Y1Z       0.049700
     45 H8           1.6460     6.3950    -3.2000 h1         1 Y1Z       0.056950
     46 H9           0.6580     5.3470    -2.1680 h1         1 Y1Z       0.056950
     47 H10          0.9570     5.5210     0.2670 h1         1 Y1Z       0.056950
     48 H11          2.1480     6.6860     0.8740 h1         1 Y1Z       0.056950
     49 H12          2.9900     4.3390     0.9670 h1         1 Y1Z       0.049700
     50 H13          3.9720     5.3620    -0.0960 h1         1 Y1Z       0.049700
     51 H14          5.3450     4.2740    -1.3560 ha         1 Y1Z       0.146000
     52 H15          7.0000     2.4540    -1.4300 ha         1 Y1Z       0.148000
     53 H16          3.8520    -0.4290    -0.9750 ha         1 Y1Z       0.154000
     54 H17          4.4950    -0.6030    -3.0260 ha         1 Y1Z       0.150000
     55 H18          4.2500    -2.5120    -4.5530 ha         1 Y1Z       0.137000
     56 H19          5.9320    -4.3080    -4.5920 ha         1 Y1Z       0.139000
     57 H20          7.8860    -4.2210    -3.1030 ha         1 Y1Z       0.162000
     58 H21          9.4500    -0.1440     1.9920 hc         1 Y1Z       0.063033
     59 H22         10.6270     0.4810     0.8290 hc         1 Y1Z       0.063033
     60 H23         11.0360    -0.9110     1.8400 hc         1 Y1Z       0.063033
@<TRIPOS>BOND
     1    15    16 1
     2    15    14 1
     3    16    17 1
     4    37    36 1
     5    17    18 1
     6    20    21 ar
     7    20    13 ar
     8    21    22 ar
     9    36    35 2
    10    36    32 1
    11    14    13 1
    12    14    19 1
    13    33    32 1
    14    33    24 2
    15    35    34 1
    16    13    12 ar
    17    32    31 1
    18    18    19 1
    19    22    24 1
    20    22    23 ar
    21    24    25 1
    22    34    31 2
    23    31    30 1
    24    12    23 ar
    25    12    11 1
    26    25    30 ar
    27    25    26 ar
    28    30    29 ar
    29    26    27 ar
    30    11     2 1
    31    29    28 ar
    32    27    28 ar
    33     1     2 2
    34     2     3 2
    35     2     4 1
    36     5     4 ar
    37     5     6 ar
    38     4     9 ar
    39     6     7 ar
    40     9    10 1
    41     9     8 ar
    42     7     8 ar
    43     5    38 1
    44     6    39 1
    45     7    40 1
    46     8    41 1
    47    11    42 1
    48    15    43 1
    49    15    44 1
    50    16    45 1
    51    16    46 1
    52    18    47 1
    53    18    48 1
    54    19    49 1
    55    19    50 1
    56    20    51 1
    57    21    52 1
    58    23    53 1
    59    26    54 1
    60    27    55 1
    61    28    56 1
    62    29    57 1
    63    37    58 1
    64    37    59 1
    65    37    60 1
@<TRIPOS>SUBSTRUCTURE
     1 Y1Z         1 TEMP              0 ****  ****    0 ROOT
