@<TRIPOS>MOLECULE
Y1Z
   60    65     1     0     0
SMALL
bcc


@<TRIPOS>ATOM
      1 OBD          0.0000     0.0000     0.0000 o          1 Y1Z      -0.568800
      2 SBB          1.4210     0.0000     0.0000 sy         1 Y1Z       1.032200
      3 OBC          2.1980     0.0000     1.1900 o          1 Y1Z      -0.568800
      4 CBE          1.9190    -1.4170    -0.9200 ca         1 Y1Z      -0.170500
      5 CBF          2.8210    -2.3120    -0.3770 ca         1 Y1Z       0.010000
      6 CBG          3.2130    -3.4240    -1.0980 ca         1 Y1Z      -0.126000
      7 CBH          2.7020    -3.6410    -2.3640 ca         1 Y1Z      -0.036000
      8 CBI          1.7990    -2.7470    -2.9090 ca         1 Y1Z      -0.130000
      9 CBJ          1.4030    -1.6370    -2.1840 ca         1 Y1Z       0.046400
     10 Cl           0.2640    -0.5180    -2.8650 cl         1 Y1Z       0.008600
     11 NAU          1.8880     1.3350    -0.8620 nu         1 Y1Z      -0.377500
     12 CAS          3.2490     1.6270    -1.0180 ca         1 Y1Z       0.117600
     13 CAR          3.6710     2.9530    -1.1250 ca         1 Y1Z      -0.016400
     14 NAV          2.7340     3.9890    -1.0840 nh         1 Y1Z      -0.400000
     15 CBA          2.7070     4.7270    -2.3560 c3         1 Y1Z       0.105300
     16 CAZ          1.6290     5.8110    -2.2880 c3         1 Y1Z       0.214400
     17 OAY          1.8890     6.6660    -1.1710 os         1 Y1Z      -0.410600
     18 CAX          1.9210     5.9810     0.0830 c3         1 Y1Z       0.214400
     19 CAW          3.0020     4.8980     0.0400 c3         1 Y1Z       0.105300
     20 CAQ          5.0200     3.2440    -1.2730 ca         1 Y1Z      -0.104000
     21 CAP          5.9480     2.2240    -1.3140 ca         1 Y1Z      -0.080000
     22 CAO          5.5330     0.8970    -1.2080 ca         1 Y1Z      -0.126500
     23 CAT          4.1770     0.6010    -1.0580 ca         1 Y1Z      -0.170000
     24 CAG          6.5290    -0.1980    -1.2530 cc         1 Y1Z       0.527800
     25 CAD          6.3410    -1.3200    -2.1830 ca         1 Y1Z      -0.182300
     26 CAC          5.2400    -1.3890    -3.0350 ca         1 Y1Z      -0.073000
     27 CAB          5.1060    -2.4590    -3.8910 ca         1 Y1Z      -0.112000
     28 CAA          6.0550    -3.4730    -3.9120 ca         1 Y1Z      -0.076000
     29 CAF          7.1500    -3.4270    -3.0800 ca         1 Y1Z      -0.072000
     30 CAE          7.3070    -2.3510    -2.2060 ca         1 Y1Z       0.046000
     31 CAJ          8.4520    -2.2480    -1.2970 cc         1 Y1Z      -0.300300
     32 NAI          8.5450    -1.1610    -0.4630 na         1 Y1Z       0.531300
     33 NAH          7.5760    -0.1590    -0.4680 nd         1 Y1Z      -0.578800
     34 NAM          9.5040    -3.0040    -1.0650 nd         1 Y1Z      -0.039000
     35 NAL         10.2310    -2.4630    -0.1520 nd         1 Y1Z      -0.345700
     36 CAK          9.6910    -1.3400     0.2470 cc         1 Y1Z       0.165800
     37 CAN         10.2390    -0.4130     1.3010 c3         1 Y1Z       0.032600
     38 H1           3.2220    -2.1410     0.6150 ha         1 Y1Z       0.138000
     39 H2           3.9200    -4.1250    -0.6710 ha         1 Y1Z       0.118000
     40 H3           3.0100    -4.5120    -2.9300 ha         1 Y1Z       0.109000
     41 H4           1.3970    -2.9190    -3.9000 ha         1 Y1Z       0.121000
     42 H5           1.1990     1.9150    -1.2980 hn         1 Y1Z       0.362800
     43 H6           3.6730     5.1890    -2.5250 h1         1 Y1Z       0.022450
     44 H7           2.4810     4.0430    -3.1650 h1         1 Y1Z       0.022450
     45 H8           1.6460     6.3950    -3.2000 h1         1 Y1Z       0.014200
     46 H9           0.6580     5.3470    -2.1680 h1         1 Y1Z       0.014200
     47 H10          0.9570     5.5210     0.2670 h1         1 Y1Z       0.014200
     48 H11          2.1480     6.6860     0.8740 h1         1 Y1Z       0.014200
     49 H12          2.9900     4.3390     0.9670 h1         1 Y1Z       0.022450
     50 H13          3.9720     5.3620    -0.0960 h1         1 Y1Z       0.022450
     51 H14          5.3450     4.2740    -1.3560 ha         1 Y1Z       0.118000
     52 H15          7.0000     2.4540    -1.4300 ha         1 Y1Z       0.117000
     53 H16          3.8520    -0.4290    -0.9750 ha         1 Y1Z       0.144000
     54 H17          4.4950    -0.6030    -3.0260 ha         1 Y1Z       0.126000
     55 H18          4.2500    -2.5120    -4.5530 ha         1 Y1Z       0.110000
     56 H19          5.9320    -4.3080    -4.5920 ha         1 Y1Z       0.108000
     57 H20          7.8860    -4.2210    -3.1030 ha         1 Y1Z       0.133000
     58 H21          9.4500    -0.1440     1.9920 hc         1 Y1Z       0.018367
     59 H22         10.6270     0.4810     0.8290 hc         1 Y1Z       0.018367
     60 H23         11.0360    -0.9110     1.8400 hc         1 Y1Z       0.018367
@<TRIPOS>BOND
     1     1     2 2   
     2     2     3 2   
     3     2     4 1   
     4     2    11 1   
     5     4     5 ar  
     6     4     9 ar  
     7     5     6 ar  
     8     5    38 1   
     9     6     7 ar  
    10     6    39 1   
    11     7     8 ar  
    12     7    40 1   
    13     8     9 ar  
    14     8    41 1   
    15     9    10 1   
    16    11    12 1   
    17    11    42 1   
    18    12    13 ar  
    19    12    23 ar  
    20    13    14 1   
    21    13    20 ar  
    22    14    15 1   
    23    14    19 1   
    24    15    16 1   
    25    15    43 1   
    26    15    44 1   
    27    16    17 1   
    28    16    45 1   
    29    16    46 1   
    30    17    18 1   
    31    18    19 1   
    32    18    47 1   
    33    18    48 1   
    34    19    49 1   
    35    19    50 1   
    36    20    21 ar  
    37    20    51 1   
    38    21    22 ar  
    39    21    52 1   
    40    22    23 ar  
    41    22    24 1   
    42    23    53 1   
    43    24    25 1   
    44    24    33 2   
    45    25    26 ar  
    46    25    30 ar  
    47    26    27 ar  
    48    26    54 1   
    49    27    28 ar  
    50    27    55 1   
    51    28    29 ar  
    52    28    56 1   
    53    29    30 ar  
    54    29    57 1   
    55    30    31 1   
    56    31    32 1   
    57    31    34 2   
    58    32    33 1   
    59    32    36 1   
    60    34    35 1   
    61    35    36 2   
    62    36    37 1   
    63    37    58 1   
    64    37    59 1   
    65    37    60 1   
@<TRIPOS>SUBSTRUCTURE
     1 Y1Z         1 TEMP              0 ****  ****    0 ROOT
