@<TRIPOS>MOLECULE
molecule
   39    41     1     0     0
SMALL
bcc


@<TRIPOS>ATOM
      1 F29          0.0000     0.0000     0.0000 f          1 Y22      -0.228967
      2 CAW          1.3990     0.0000     0.0000 c3         1 Y22       0.672200
      3 F27          1.8650     0.0000     1.3200 f          1 Y22      -0.228967
      4 F28          1.8650    -1.1420    -0.6590 f          1 Y22      -0.228967
      5 CAV          1.9010     1.2310    -0.7100 ca         1 Y22      -0.184300
      6 CAU          1.1570     2.3950    -0.6860 ca         1 Y22      -0.087000
      7 CAT          1.6170     3.5240    -1.3370 ca         1 Y22      -0.113500
      8 CAS          2.8230     3.4880    -2.0130 ca         1 Y22      -0.061300
      9 CAZ          3.5670     2.3240    -2.0370 ca         1 Y22      -0.113500
     10 CAY          3.1090     1.1970    -1.3810 ca         1 Y22      -0.087000
     11 CAR          3.3250     4.7190    -2.7240 c3         1 Y22       0.272100
     12 NAQ          4.1440     5.5130    -1.8050 nu         1 Y22      -0.897900
     13 CAP          4.7160     6.6960    -2.2350 ca         1 Y22       0.609900
     14 NAO          4.6060     7.0460    -3.5040 nb         1 Y22      -0.788000
     15 CAN          5.1600     8.1900    -3.9210 ca         1 Y22       0.338300
     16 CAM          5.0710     8.6090    -5.2580 ca         1 Y22      -0.136300
     17 CAH          5.6510     9.7820    -5.6330 ca         1 Y22      -0.173300
     18 CAI          5.5520    10.2240    -7.0700 c3         1 Y22       0.669200
     19 FAK          4.4020    11.0030    -7.2400 f          1 Y22      -0.232633
     20 FAJ          6.6800    10.9800    -7.4050 f          1 Y22      -0.232633
     21 FAL          5.4800     9.1010    -7.9000 f          1 Y22      -0.232633
     22 CAG          6.3340    10.5840    -4.7220 ca         1 Y22      -0.148000
     23 CAF          6.4560    10.2330    -3.4140 ca         1 Y22      -0.126300
     24 CAE          5.8790     9.0320    -2.9620 ca         1 Y22       0.251300
     25 NAD          5.9690     8.6450    -1.6900 nb         1 Y22      -0.581000
     26 CAC          5.4050     7.5120    -1.3110 ca         1 Y22       0.277500
     27 CAB          5.5080     7.0860     0.1010 c          1 Y22       0.788100
     28 OAA          5.0910     5.9960     0.4380 o          1 Y22      -0.800300
     29 OBA          6.0630     7.9060     1.0140 o          1 Y22      -0.800300
     30 H1           0.2120     2.4230    -0.1560 ha         1 Y22       0.140000
     31 H2           1.0340     4.4370    -1.3180 ha         1 Y22       0.145000
     32 H3           4.5130     2.2960    -2.5650 ha         1 Y22       0.145000
     33 H4           3.6930     0.2840    -1.4000 ha         1 Y22       0.140000
     34 H5           2.4830     5.3110    -3.0610 h1         1 Y22       0.047700
     35 H6           3.9240     4.4240    -3.5770 h1         1 Y22       0.047700
     36 H7           4.3160     5.1840    -0.8760 hn         1 Y22       0.514800
     37 H8           4.4440     8.0670    -5.9550 ha         1 Y22       0.146000
     38 H9           6.7810    11.5090    -5.0640 ha         1 Y22       0.130000
     39 H10          6.9920    10.8740    -2.7240 ha         1 Y22       0.149000
@<TRIPOS>BOND
     1    28    27 1
     2    29    27 1
     3    27    26 1
     4     4     2 1
     5    26    25 ar
     6    26    13 ar
     7    25    24 ar
     8     6     7 ar
     9     6     5 ar
    10     7     8 ar
    11    12    13 1
    12    12    11 1
    13    13    14 ar
    14     2     5 1
    15     2     3 1
    16     2     1 1
    17     5    10 ar
    18    24    23 ar
    19    24    15 ar
    20    23    22 ar
    21     8    11 1
    22     8     9 ar
    23    14    15 ar
    24    15    16 ar
    25    10     9 ar
    26    22    17 ar
    27    16    17 ar
    28    17    18 1
    29    21    18 1
    30    18    19 1
    31    18    20 1
    32     6    30 1
    33     7    31 1
    34     9    32 1
    35    10    33 1
    36    11    34 1
    37    11    35 1
    38    12    36 1
    39    16    37 1
    40    22    38 1
    41    23    39 1
@<TRIPOS>SUBSTRUCTURE
     1 Y22         1 TEMP              0 ****  ****    0 ROOT
