@<TRIPOS>MOLECULE
molecule
   40    41     1     0     0
SMALL
bcc


@<TRIPOS>ATOM
      1 O23          0.0000     0.0000     0.0000 o          1 Y27      -0.564100
      2 C22          1.2120     0.0000     0.0000 c          1 Y27       0.660100
      3 C31          1.9670     0.0000     1.3040 c3         1 Y27      -0.154700
      4 C36          0.9720    -0.0010     2.4680 c3         1 Y27      -0.062400
      5 C35          1.7370    -0.0010     3.7920 c3         1 Y27      -0.090900
      6 C34          2.6160    -1.2490     3.8730 c3         1 Y27      -0.102700
      7 C33          3.6100    -1.2490     2.7100 c3         1 Y27      -0.090900
      8 C32          2.8450    -1.2480     1.3850 c3         1 Y27      -0.062400
      9 C41          3.3820    -1.2490     5.1980 c3         1 Y27       0.103500
     10 C42          4.2600    -2.4980     5.2790 c3         1 Y27      -0.120100
     11 N43          4.2250    -0.0510     5.2760 nz         1 Y27      -0.812600
     12 N21          1.8860     0.0000    -1.1670 ns         1 Y27      -0.472100
     13 C14          1.1930    -0.1150    -2.3720 ca         1 Y27       0.088600
     14 C15          0.0230    -0.8660    -2.4550 ca         1 Y27      -0.274800
     15 C16         -0.6350    -0.9510    -3.6650 ca         1 Y27       0.440200
     16 N11         -0.1650    -0.3400    -4.7360 nb         1 Y27      -0.693000
     17 C12          0.9430     0.3750    -4.6990 ca         1 Y27       0.440200
     18 C13          1.6570     0.5130    -3.5270 ca         1 Y27      -0.274800
     19 H31          2.5910     0.8830     1.3660 hc         1 Y27       0.063700
     20 H361         0.3510     0.8850     2.4110 hc         1 Y27       0.075950
     21 H362         0.3520    -0.8870     2.4100 hc         1 Y27       0.075950
     22 H351         1.0330    -0.0030     4.6150 hc         1 Y27       0.040200
     23 H352         2.3620     0.8830     3.8470 hc         1 Y27       0.040200
     24 H34          1.9920    -2.1320     3.8120 hc         1 Y27       0.114700
     25 H331         4.2300    -2.1360     2.7670 hc         1 Y27       0.040200
     26 H332         4.2310    -0.3640     2.7670 hc         1 Y27       0.040200
     27 H321         2.2200    -2.1320     1.3300 hc         1 Y27       0.075950
     28 H322         3.5490    -1.2460     0.5630 hc         1 Y27       0.075950
     29 H41          2.6780    -1.2490     6.0210 hx         1 Y27       0.116700
     30 H421         4.4330    -2.7520     6.3190 hc         1 Y27       0.076367
     31 H422         5.2090    -2.3050     4.7930 hc         1 Y27       0.076367
     32 H423         3.7620    -3.3230     4.7850 hc         1 Y27       0.076367
     33 H431         4.6320     0.1290     4.3800 hn         1 Y27       0.456133
     34 H432         4.9520    -0.1990     5.9490 hn         1 Y27       0.456133
     35 H21          2.8780     0.1320    -1.1710 hn         1 Y27       0.324500
     36 H15         -0.2620    -1.5180    -1.6380 ha         1 Y27       0.148500
     37 H16         -1.5500    -1.5260    -3.7370 h4         1 Y27       0.033100
     38 H12          1.2960     0.8600    -5.6010 h4         1 Y27       0.033100
     39 H13          2.5030     1.1770    -3.6610 ha         1 Y27       0.148500
     40 H433         3.6670     0.7330     5.5490 hn         1 Y27       0.456133
@<TRIPOS>BOND
     1     1     2 2
     2     2     3 1
     3     2    12 1
     4     3     4 1
     5     3     8 1
     6     3    19 1
     7     4     5 1
     8     4    20 1
     9     4    21 1
    10     5     6 1
    11     5    22 1
    12     5    23 1
    13     6     7 1
    14     6     9 1
    15     6    24 1
    16     7     8 1
    17     7    25 1
    18     7    26 1
    19     8    27 1
    20     8    28 1
    21     9    10 1
    22     9    11 1
    23     9    29 1
    24    10    30 1
    25    10    31 1
    26    10    32 1
    27    11    33 1
    28    11    34 1
    29    12    13 1
    30    12    35 1
    31    13    14 ar
    32    13    18 ar
    33    14    15 ar
    34    14    36 1
    35    15    16 ar
    36    15    37 1
    37    16    17 ar
    38    17    18 ar
    39    17    38 1
    40    18    39 1
    41    40    11 1
@<TRIPOS>SUBSTRUCTURE
     1 Y27         1 TEMP              0 ****  ****    0 ROOT
