@<TRIPOS>MOLECULE
Y2B
   57    60     1     0     0
SMALL
bcc


@<TRIPOS>ATOM
      1 N01          0.0000     0.0000     0.0000 nb         1 Y2B      -0.657000
      2 C02          1.3230     0.0000     0.0000 ca         1 Y2B       0.516200
      3 N02          2.0130    -0.0000    -1.2070 nv         1 Y2B      -0.537500
      4 C03          2.0320     0.0000     1.1980 ca         1 Y2B      -0.314300
      5 C04          1.3330     0.0010     2.3910 ca         1 Y2B      -0.005300
      6 C05         -0.0550     0.0010     2.3470 ca         1 Y2B      -0.292300
      7 C06         -0.6930     0.0010     1.1230 ca         1 Y2B       0.431600
      8 C07          2.0610     0.0000     3.7110 c3         1 Y2B       0.060200
      9 C08         -2.1980    -0.0000     1.0690 c3         1 Y2B      -0.065700
     10 O09         -4.7590     0.0600     0.8280 os         1 Y2B      -0.391600
     11 N1'         -3.4980     3.3970     0.6350 n7         1 Y2B      -0.581200
     12 C10         -5.9810    -0.4430     0.2850 c3         1 Y2B       0.208400
     13 C11         -6.4670    -1.6240     1.1280 c3         1 Y2B       0.135800
     14 N12         -6.8060    -1.1540     2.4780 n7         1 Y2B      -0.526200
     15 C13         -7.2780    -2.2640     3.3180 cx         1 Y2B       0.052500
     16 C14         -8.1930    -1.9190     4.4940 cx         1 Y2B      -0.073400
     17 C15         -6.7440    -2.3410     4.7500 cx         1 Y2B      -0.070400
     18 C2'         -2.3370     2.5150     0.9220 c3         1 Y2B       0.137800
     19 C21         -9.2770    -2.9060     4.8440 ca         1 Y2B      -0.021300
     20 C22        -10.6030    -2.5180     4.8030 ca         1 Y2B      -0.130000
     21 C23        -11.5990    -3.4260     5.1240 ca         1 Y2B       0.108900
     22 F23        -12.8960    -3.0490     5.0840 f          1 Y2B      -0.128900
     23 C24        -11.2650    -4.7200     5.4850 ca         1 Y2B      -0.139000
     24 C25         -9.9390    -5.1050     5.5260 ca         1 Y2B      -0.067000
     25 C26         -8.9460    -4.2000     5.2000 ca         1 Y2B      -0.127000
     26 C3'         -2.6780     1.1820     0.2230 c3         1 Y2B      -0.049700
     27 C4'         -4.2170     1.1710     0.1110 c3         1 Y2B       0.172100
     28 C5'         -4.6760     2.4980     0.7510 c3         1 Y2B       0.108800
     29 HN02         1.5090     0.0020    -2.0720 hn         1 Y2B       0.269300
     30 HN0A         3.0140    -0.0030    -1.2120 hn         1 Y2B       0.269300
     31 H03          3.1150    -0.0000     1.1960 ha         1 Y2B       0.118000
     32 H05         -0.6310     0.0010     3.2640 ha         1 Y2B       0.121000
     33 H07          3.0910    -0.2970     3.5540 hc         1 Y2B       0.009367
     34 H07A         1.5830    -0.6970     4.3870 hc         1 Y2B       0.009367
     35 H07B         2.0340     0.9950     4.1380 hc         1 Y2B       0.009367
     36 H08         -2.5430    -0.9260     0.6240 hc         1 Y2B       0.036200
     37 H08A        -2.5960     0.0890     2.0720 hc         1 Y2B       0.036200
     38 HN1'        -3.5540     4.1120     1.3330 hn         1 Y2B       0.251800
     39 H10         -6.7300     0.3400     0.2950 h1         1 Y2B      -0.007800
     40 H10A        -5.8150    -0.7710    -0.7340 h1         1 Y2B      -0.007800
     41 H13         -7.4750    -3.2230     2.8550 h1         1 Y2B       0.060700
     42 H14         -8.3870    -0.8610     4.6230 hc         1 Y2B       0.068700
     43 H15         -6.0700    -1.5450     5.0420 hc         1 Y2B       0.055700
     44 H15A        -6.6120    -3.3410     5.1460 hc         1 Y2B       0.055700
     45 H2'         -2.2340     2.3640     1.9900 h1         1 Y2B       0.016700
     46 H2'A        -1.4310     2.9370     0.5040 h1         1 Y2B       0.016700
     47 H22        -10.8610    -1.4930     4.5660 ha         1 Y2B       0.121000
     48 H24        -12.0430    -5.4290     5.7390 ha         1 Y2B       0.119000
     49 H25         -9.6780    -6.1180     5.8070 ha         1 Y2B       0.106000
     50 H26         -7.9060    -4.5040     5.2320 ha         1 Y2B       0.119000
     51 H3'         -2.2320     1.1520    -0.7630 hc         1 Y2B       0.054700
     52 H4'         -4.5150     1.1360    -0.9300 h1         1 Y2B       0.017700
     53 H5'         -5.5170     2.9080     0.2060 h1         1 Y2B       0.018200
     54 H5'A        -4.9310     2.3450     1.7930 h1         1 Y2B       0.018200
     55 H27         -7.5190    -0.4540     2.4180 hn         1 Y2B       0.252800
     56 H11         -7.3440    -2.0610     0.6660 h1         1 Y2B       0.016200
     57 H29         -5.6830    -2.3700     1.1910 h1         1 Y2B       0.016200
@<TRIPOS>BOND
     1     1     2 ar  
     2     1     7 ar  
     3     2     3 1   
     4     2     4 ar  
     5     3    29 1   
     6     3    30 1   
     7     4     5 ar  
     8     4    31 1   
     9     5     6 ar  
    10     5     8 1   
    11     6     7 ar  
    12     6    32 1   
    13     7     9 1   
    14     8    33 1   
    15     8    34 1   
    16     8    35 1   
    17     9    26 1   
    18     9    36 1   
    19     9    37 1   
    20    10    12 1   
    21    10    27 1   
    22    11    18 1   
    23    11    28 1   
    24    11    38 1   
    25    12    13 1   
    26    12    39 1   
    27    12    40 1   
    28    13    14 1   
    29    13    56 1   
    30    13    57 1   
    31    14    15 1   
    32    14    55 1   
    33    15    16 1   
    34    15    17 1   
    35    15    41 1   
    36    16    17 1   
    37    16    19 1   
    38    16    42 1   
    39    17    43 1   
    40    17    44 1   
    41    18    26 1   
    42    18    45 1   
    43    18    46 1   
    44    19    20 ar  
    45    19    25 ar  
    46    20    21 ar  
    47    20    47 1   
    48    21    22 1   
    49    21    23 ar  
    50    23    24 ar  
    51    23    48 1   
    52    24    25 ar  
    53    24    49 1   
    54    25    50 1   
    55    26    27 1   
    56    26    51 1   
    57    27    28 1   
    58    27    52 1   
    59    28    53 1   
    60    28    54 1   
@<TRIPOS>SUBSTRUCTURE
     1 Y2B         1 TEMP              0 ****  ****    0 ROOT
