@<TRIPOS>MOLECULE
molecule
   59    61     1     0     0
SMALL
bcc


@<TRIPOS>ATOM
      1 N01          0.0000     0.0000     0.0000 nb         1 Y2F      -0.720000
      2 C02          1.3240     0.0000     0.0000 ca         1 Y2F       0.684200
      3 N02          2.0130    -0.0000    -1.2070 nv         1 Y2F      -1.084500
      4 C03          2.0330     0.0000     1.1980 ca         1 Y2F      -0.264300
      5 C04          1.3350     0.0000     2.3910 ca         1 Y2F      -0.044300
      6 C05         -0.0530     0.0000     2.3490 ca         1 Y2F      -0.262300
      7 C06         -0.6910     0.0010     1.1250 ca         1 Y2F       0.437600
      8 C07          2.0640    -0.0000     3.7110 c3         1 Y2F      -0.049800
      9 C08         -2.1970     0.0000     1.0710 c3         1 Y2F      -0.110700
     10 O09         -4.7470    -0.0070     0.7330 os         1 Y2F      -0.436600
     11 N1'         -3.5730     3.3670     0.6400 n7         1 Y2F      -0.790200
     12 C10         -5.9680    -0.4930     0.1730 c3         1 Y2F       0.133400
     13 C11         -6.4490    -1.7040     0.9740 c3         1 Y2F       0.160800
     14 N12         -6.7880    -1.2840     2.3410 n7         1 Y2F      -0.817200
     15 C13         -7.2550    -2.4230     3.1420 c3         1 Y2F       0.163500
     16 C14         -6.0510    -3.1560     3.7360 c3         1 Y2F      -0.128100
     17 C15         -8.1530    -1.9180     4.2720 c3         1 Y2F      -0.025100
     18 C2'         -4.7290     2.4350     0.6970 c3         1 Y2F       0.110800
     19 C21         -9.4000    -1.3050     3.6880 ca         1 Y2F      -0.045300
     20 C22         -9.4240     0.0400     3.3710 ca         1 Y2F      -0.116000
     21 C23        -10.5660     0.6050     2.8350 ca         1 Y2F      -0.108000
     22 C24        -11.6860    -0.1750     2.6140 ca         1 Y2F      -0.172000
     23 C25        -11.6620    -1.5240     2.9300 ca         1 Y2F       0.128900
     24 F25        -12.7550    -2.2880     2.7160 f          1 Y2F      -0.145900
     25 C26        -10.5150    -2.0890     3.4630 ca         1 Y2F      -0.171000
     26 C3'         -4.2090     1.1310     0.0540 c3         1 Y2F       0.141100
     27 C4'         -2.6770     1.1830     0.2260 c3         1 Y2F      -0.063700
     28 C5'         -2.4000     2.5130     0.9580 c3         1 Y2F       0.138800
     29 HN02         2.2740     0.8670    -1.6350 hn         1 Y2F       0.434800
     30 HN0A         2.2270    -0.8660    -1.6610 hn         1 Y2F       0.434800
     31 H03          3.1170     0.0000     1.1940 ha         1 Y2F       0.142000
     32 H05         -0.6290     0.0000     3.2660 ha         1 Y2F       0.137000
     33 H07          2.2140    -1.0210     4.0400 hc         1 Y2F       0.047033
     34 H07A         1.4780     0.5350     4.4470 hc         1 Y2F       0.047033
     35 H07B         3.0260     0.4850     3.5920 hc         1 Y2F       0.047033
     36 H08         -2.5950     0.0890     2.0750 hc         1 Y2F       0.064700
     37 H08A        -2.5430    -0.9250     0.6260 hc         1 Y2F       0.064700
     38 HN1'        -3.6760     4.0690     1.3460 hn         1 Y2F       0.346800
     39 H10         -6.7190     0.2860     0.2120 h1         1 Y2F       0.034700
     40 H10A        -5.8030    -0.7840    -0.8570 h1         1 Y2F       0.034700
     41 H11         -7.3260    -2.1270     0.4980 h1         1 Y2F       0.042200
     42 H11A        -5.6630    -2.4490     1.0100 h1         1 Y2F       0.042200
     43 HN12        -5.9820    -0.8790     2.7750 hn         1 Y2F       0.366800
     44 H13         -7.8160    -3.1020     2.5110 h1         1 Y2F       0.062700
     45 H14         -5.2240    -2.4650     3.8430 hc         1 Y2F       0.039700
     46 H14A        -6.3150    -3.5570     4.7070 hc         1 Y2F       0.039700
     47 H14B        -5.7610    -3.9670     3.0770 hc         1 Y2F       0.039700
     48 H15         -8.4260    -2.7470     4.9140 hc         1 Y2F       0.051700
     49 H15A        -7.6210    -1.1730     4.8500 hc         1 Y2F       0.051700
     50 H2'         -5.0200     2.2580     1.7250 h1         1 Y2F       0.047700
     51 H2'A        -5.5600     2.8300     0.1250 h1         1 Y2F       0.047700
     52 H22         -8.5480     0.6530     3.5430 ha         1 Y2F       0.140000
     53 H23        -10.5840     1.6590     2.5870 ha         1 Y2F       0.133000
     54 H24        -12.5810     0.2670     2.1940 ha         1 Y2F       0.141000
     55 H26        -10.4960    -3.1430     3.7110 ha         1 Y2F       0.141000
     56 H3'         -4.4660     1.1040    -0.9980 h1         1 Y2F       0.053700
     57 H4'         -2.1920     1.1810    -0.7430 hc         1 Y2F       0.088700
     58 H5'         -2.3350     2.3470     2.0270 h1         1 Y2F       0.043700
     59 H5'A        -1.4910     2.9670     0.5830 h1         1 Y2F       0.043700
@<TRIPOS>BOND
     1     2     1 ar
     2     7     1 ar
     3     4     2 ar
     4     2     3 1
     5     3    29 1
     6     3    30 1
     7     5     4 ar
     8     4    31 1
     9     8     5 1
    10     5     6 ar
    11     6     7 ar
    12     6    32 1
    13     7     9 1
    14     8    33 1
    15     8    34 1
    16     8    35 1
    17    27     9 1
    18     9    36 1
    19     9    37 1
    20    26    10 1
    21    10    12 1
    22    11    28 1
    23    11    18 1
    24    11    38 1
    25    12    13 1
    26    12    39 1
    27    12    40 1
    28    14    13 1
    29    13    41 1
    30    13    42 1
    31    14    15 1
    32    14    43 1
    33    15    17 1
    34    15    16 1
    35    15    44 1
    36    16    45 1
    37    16    46 1
    38    16    47 1
    39    17    19 1
    40    17    48 1
    41    17    49 1
    42    18    26 1
    43    18    50 1
    44    18    51 1
    45    20    19 ar
    46    19    25 ar
    47    20    21 ar
    48    20    52 1
    49    21    22 ar
    50    21    53 1
    51    22    23 ar
    52    22    54 1
    53    25    23 ar
    54    23    24 1
    55    25    55 1
    56    27    26 1
    57    26    56 1
    58    28    27 1
    59    27    57 1
    60    28    58 1
    61    28    59 1
@<TRIPOS>SUBSTRUCTURE
     1 Y2F         1 TEMP              0 ****  ****    0 ROOT
