@<TRIPOS>MOLECULE
Y3
   32    33     1     0     0
SMALL
bcc


@<TRIPOS>ATOM
      1 C1           0.0000     0.0000     0.0000 ca         1 Y3        0.059100
      2 C2           1.3770     0.0000     0.0000 ca         1 Y3       -0.101000
      3 C3           2.0880     0.0000     1.1950 ca         1 Y3       -0.098500
      4 C4           1.4450     0.0020     2.3950 ca         1 Y3       -0.002000
      5 C5           0.0400     0.0020     2.4380 ca         1 Y3       -0.070000
      6 C6          -0.6930    -0.0050     1.2270 ca         1 Y3       -0.018000
      7 C7          -2.1010     0.0020     1.2700 ca         1 Y3       -0.165400
      8 C8          -2.7410     0.0040     2.4920 ca         1 Y3       -0.016000
      9 C9          -2.0110     0.0050     3.6760 ca         1 Y3       -0.103500
     10 C10         -0.6490     0.0040     3.6620 ca         1 Y3        0.003000
     11 S11          3.8500     0.0010     1.1570 s6         1 Y3        1.035100
     12 O12          4.2080     0.5240    -0.1140 o          1 Y3       -0.667533
     13 O13          4.2640     0.5270     2.4090 o          1 Y3       -0.667533
     14 O14          4.3040    -1.4510     1.1480 o          1 Y3       -0.667533
     15 N15         -2.8420     0.0010     0.0870 ns         1 Y3       -0.014100
     16 C16         -4.0930    -0.5000     0.0760 c          1 Y3        0.530100
     17 O17         -4.5350    -1.0460     1.0640 o          1 Y3       -0.629100
     18 C18         -4.9410    -0.3830    -1.1640 c3         1 Y3       -0.072100
     19 S19         -2.8620     0.0080     5.2180 s6         1 Y3        1.031100
     20 O20         -1.9430     0.5350     6.1650 o          1 Y3       -0.664867
     21 O21         -4.1540     0.5350     4.9450 o          1 Y3       -0.664867
     22 O22         -3.0830    -1.4430     5.6180 o          1 Y3       -0.664867
     23 O23         -0.6850    -0.0000    -1.1730 oh         1 Y3       -0.516100
     24 H2           1.9120    -0.0020    -0.9420 ha         1 Y3        0.117000
     25 H4           2.0150     0.0020     3.3160 ha         1 Y3        0.130000
     26 H8          -3.8230     0.0050     2.5300 ha         1 Y3        0.164000
     27 H10         -0.0970     0.0050     4.5940 ha         1 Y3        0.129000
     28 HN5         -2.4630     0.4160    -0.7410 hn         1 Y3        0.182500
     29 H181        -4.4980    -0.9670    -1.9620 hc         1 Y3        0.009367
     30 H182        -5.9380    -0.7530    -0.9560 hc         1 Y3        0.009367
     31 H183        -4.9980     0.6560    -1.4660 hc         1 Y3        0.009367
     32 HO3         -0.0800    -0.0900    -1.8900 ho         1 Y3        0.395000
@<TRIPOS>BOND
     1     1     2 ar  
     2     1     6 ar  
     3     1    23 1   
     4     2     3 ar  
     5     2    24 1   
     6     3     4 ar  
     7     3    11 1   
     8     4     5 ar  
     9     4    25 1   
    10     5     6 ar  
    11     5    10 ar  
    12     6     7 ar  
    13     7     8 ar  
    14     7    15 1   
    15     8     9 ar  
    16     8    26 1   
    17     9    10 ar  
    18     9    19 1   
    19    10    27 1   
    20    11    12 1   
    21    11    13 1   
    22    11    14 1   
    23    15    16 1   
    24    15    28 1   
    25    16    17 2   
    26    16    18 1   
    27    18    29 1   
    28    18    30 1   
    29    18    31 1   
    30    19    20 1   
    31    19    21 1   
    32    19    22 1   
    33    23    32 1   
@<TRIPOS>SUBSTRUCTURE
     1 Y3          1 TEMP              0 ****  ****    0 ROOT
