@<TRIPOS>MOLECULE
molecule
   68    71     1     0     0
SMALL
bcc


@<TRIPOS>ATOM
      1 OAE          0.0000     0.0000     0.0000 o          1 Y30      -0.773800
      2 CBA          1.2160     0.0000     0.0000 c          1 Y30       0.861800
      3 OAG          1.8890     0.0000     1.1690 o          1 Y30      -0.773800
      4 CBH          1.9510    -0.0070    -1.2710 cc         1 Y30      -0.015300
      5 NAY          3.0190    -0.8300    -1.5740 na         1 Y30      -0.148400
      6 CBJ          3.4450    -0.5490    -2.8520 ca         1 Y30      -0.060200
      7 CAU          4.4610    -1.0640    -3.6510 ca         1 Y30      -0.131000
      8 CBD          4.6500    -0.5690    -4.9230 ca         1 Y30       0.024400
      9 ClI          5.9180    -1.2130    -5.9170 cl         1 Y30      -0.147400
     10 CAQ          3.8330     0.4420    -5.4180 ca         1 Y30      -0.160000
     11 CAT          2.8310     0.9630    -4.6520 ca         1 Y30      -0.085000
     12 CBK          2.6190     0.4760    -3.3550 ca         1 Y30      -0.078800
     13 CBI          1.6860     0.7920    -2.3390 cd         1 Y30      -0.228400
     14 CA           0.5960     1.8290    -2.4250 c3         1 Y30       0.138900
     15 C            1.2140     3.2000    -2.5110 c          1 Y30       0.659100
     16 NAX          2.2470     3.5260    -1.7100 ns         1 Y30      -0.571900
     17 CBN          2.8170     4.8740    -1.7600 c3         1 Y30       0.123400
     18 CAA          3.3400     5.1550    -3.1700 c3         1 Y30      -0.103100
     19 CAC          1.7370     5.8970    -1.4020 c3         1 Y30      -0.103100
     20 CAB          3.9700     4.9780    -0.7590 c3         1 Y30      -0.103100
     21 O            0.7800     4.0120    -3.3010 o          1 Y30      -0.641100
     22 N           -0.2500     1.7480    -1.2320 n          1 Y30      -0.499800
     23 CAJ          0.2770     1.9860    -0.0150 c          1 Y30       0.707900
     24 OAD         -0.3950     1.8190     0.9810 o          1 Y30      -0.607100
     25 CAW         -1.6690     1.4070    -1.3610 c3         1 Y30       0.185300
     26 CBF         -1.8370    -0.0880    -1.2730 ca         1 Y30      -0.081300
     27 CAP         -2.0420    -0.6880    -0.0440 ca         1 Y30      -0.042000
     28 CAS         -2.1970    -2.0590     0.0390 ca         1 Y30      -0.209000
     29 CAO         -1.7910    -0.8570    -2.4220 ca         1 Y30      -0.042000
     30 CAR         -1.9450    -2.2270    -2.3430 ca         1 Y30      -0.209000
     31 CBG         -2.1450    -2.8330    -1.1110 ca         1 Y30       0.114100
     32 OAZ         -2.2970    -4.1800    -1.0310 os         1 Y30      -0.334900
     33 CAV         -2.2320    -4.9140    -2.2560 c3         1 Y30       0.187700
     34 CBE         -2.4210    -6.3820    -1.9730 ca         1 Y30      -0.077300
     35 CAM         -3.6890    -6.9300    -1.9790 ca         1 Y30      -0.096500
     36 CAN         -1.3230    -7.1810    -1.7120 ca         1 Y30      -0.096500
     37 CAL         -1.4940    -8.5280    -1.4530 ca         1 Y30      -0.130000
     38 CBC         -2.7640    -9.0760    -1.4540 ca         1 Y30       0.030400
     39 ClH         -2.9810   -10.7680    -1.1290 cl         1 Y30      -0.127400
     40 CAK         -3.8620    -8.2770    -1.7200 ca         1 Y30      -0.130000
     41 H2           3.4170    -1.5170    -0.9650 hn         1 Y30       0.311700
     42 H3           5.1500    -1.7960    -3.2460 ha         1 Y30       0.130000
     43 H4           3.9950     0.8210    -6.4200 ha         1 Y30       0.128000
     44 H5           2.2000     1.7500    -5.0470 ha         1 Y30       0.137000
     45 H6           2.6460     2.8370    -1.1030 hn         1 Y30       0.335500
     46 H7           2.5040     5.3150    -3.8400 hc         1 Y30       0.042256
     47 H8           3.9640     6.0400    -3.1540 hc         1 Y30       0.042256
     48 H9           3.9220     4.3090    -3.5150 hc         1 Y30       0.042256
     49 H10          2.1940     6.8690    -1.2580 hc         1 Y30       0.042256
     50 H11          1.0130     5.9540    -2.2060 hc         1 Y30       0.042256
     51 H12          1.2400     5.5930    -0.4890 hc         1 Y30       0.042256
     52 H13          4.7080     4.2170    -0.9790 hc         1 Y30       0.042256
     53 H14          3.5900     4.8340     0.2450 hc         1 Y30       0.042256
     54 H15          4.4270     5.9570    -0.8360 hc         1 Y30       0.042256
     55 H16         -2.0830    -0.0830     0.8540 ha         1 Y30       0.139000
     56 H17         -2.3550    -2.5290     1.0020 ha         1 Y30       0.120500
     57 H18         -1.6350    -0.3840    -3.3840 ha         1 Y30       0.139000
     58 H19         -1.9070    -2.8290    -3.2430 ha         1 Y30       0.120500
     59 H20         -1.2670    -4.7570    -2.7210 h1         1 Y30       0.040200
     60 H21         -3.0140    -4.5720    -2.9240 h1         1 Y30       0.040200
     61 H22         -4.5490    -6.3040    -2.1870 ha         1 Y30       0.144000
     62 H23         -0.3280    -6.7520    -1.7110 ha         1 Y30       0.144000
     63 H24         -0.6340    -9.1540    -1.2480 ha         1 Y30       0.139500
     64 H25         -4.8560    -8.7060    -1.7230 ha         1 Y30       0.139500
     65 H26         -0.0050     1.6480    -3.3070 h1         1 Y30       0.085700
     66 H27          1.2800     2.3880     0.0710 h5         1 Y30       0.016200
     67 H28         -2.0380     1.7550    -2.3180 h1         1 Y30       0.042200
     68 H29         -2.2290     1.8810    -0.5640 h1         1 Y30       0.042200
@<TRIPOS>BOND
     1    39    38 1
     2    38    37 ar
     3    38    40 ar
     4    37    36 ar
     5    40    35 ar
     6    36    34 ar
     7    35    34 ar
     8    34    33 1
     9    33    32 1
    10    32    31 1
    11    31    28 ar
    12    31    30 ar
    13     9     8 1
    14    28    27 ar
    15    30    29 ar
    16     7     8 ar
    17     7     6 ar
    18     8    10 ar
    19     5     6 1
    20     5     4 1
    21     6    12 ar
    22    27    26 ar
    23    29    26 ar
    24     1     2 1
    25    10    11 ar
    26    26    25 1
    27     4     2 1
    28     4    13 2
    29    12    11 ar
    30    12    13 1
    31     2     3 1
    32    13    14 1
    33    25    22 1
    34    14    22 1
    35    14    15 1
    36    22    23 1
    37    23    24 2
    38    15    16 1
    39    15    21 2
    40    16    17 1
    41    18    17 1
    42    17    19 1
    43    17    20 1
    44     5    41 1
    45     7    42 1
    46    10    43 1
    47    11    44 1
    48    16    45 1
    49    18    46 1
    50    18    47 1
    51    18    48 1
    52    19    49 1
    53    19    50 1
    54    19    51 1
    55    20    52 1
    56    20    53 1
    57    20    54 1
    58    27    55 1
    59    28    56 1
    60    29    57 1
    61    30    58 1
    62    33    59 1
    63    33    60 1
    64    35    61 1
    65    36    62 1
    66    37    63 1
    67    40    64 1
    68    14    65 1
    69    23    66 1
    70    25    67 1
    71    25    68 1
@<TRIPOS>SUBSTRUCTURE
     1 Y30         1 TEMP              0 ****  ****    0 ROOT
