@<TRIPOS>MOLECULE
Y30
   68    71     1     0     0
SMALL
bcc


@<TRIPOS>ATOM
      1 OAE          0.0000     0.0000     0.0000 o          1 Y30      -0.828800
      2 CBA          1.2160     0.0000     0.0000 c          1 Y30       0.952800
      3 OAG          1.8890     0.0000     1.1690 o          1 Y30      -0.828800
      4 CBH          1.9510    -0.0070    -1.2710 cc         1 Y30      -0.220300
      5 NAY          3.0190    -0.8300    -1.5740 na         1 Y30       0.412600
      6 CBJ          3.4450    -0.5490    -2.8520 ca         1 Y30      -0.256200
      7 CAU          4.4610    -1.0640    -3.6510 ca         1 Y30      -0.092000
      8 CBD          4.6500    -0.5690    -4.9230 ca         1 Y30      -0.030600
      9 ClI          5.9180    -1.2130    -5.9170 cl         1 Y30      -0.077400
     10 CAQ          3.8330     0.4420    -5.4180 ca         1 Y30      -0.146000
     11 CAT          2.8310     0.9630    -4.6520 ca         1 Y30      -0.047000
     12 CBK          2.6190     0.4760    -3.3550 ca         1 Y30      -0.080800
     13 CBI          1.6860     0.7920    -2.3390 cd         1 Y30      -0.224400
     14 CA           0.5960     1.8290    -2.4250 c3         1 Y30       0.075900
     15 C            1.2140     3.2000    -2.5110 c          1 Y30       0.576100
     16 NAX          2.2470     3.5260    -1.7100 ns         1 Y30      -0.192900
     17 CBN          2.8170     4.8740    -1.7600 c3         1 Y30       0.013400
     18 CAA          3.3400     5.1550    -3.1700 c3         1 Y30      -0.022433
     19 CAC          1.7370     5.8970    -1.4020 c3         1 Y30      -0.022433
     20 CAB          3.9700     4.9780    -0.7590 c3         1 Y30      -0.022433
     21 O            0.7800     4.0120    -3.3010 o          1 Y30      -0.679100
     22 N           -0.2500     1.7480    -1.2320 n          1 Y30      -0.189800
     23 CAJ          0.2770     1.9860    -0.0150 c          1 Y30       0.671900
     24 OAD         -0.3950     1.8190     0.9810 o          1 Y30      -0.637100
     25 CAW         -1.6690     1.4070    -1.3610 c3         1 Y30       0.143300
     26 CBF         -1.8370    -0.0880    -1.2730 ca         1 Y30      -0.091300
     27 CAP         -2.0420    -0.6880    -0.0440 ca         1 Y30      -0.013500
     28 CAS         -2.1970    -2.0590     0.0390 ca         1 Y30      -0.199500
     29 CAO         -1.7910    -0.8570    -2.4220 ca         1 Y30      -0.013500
     30 CAR         -1.9450    -2.2270    -2.3430 ca         1 Y30      -0.199500
     31 CBG         -2.1450    -2.8330    -1.1110 ca         1 Y30       0.119100
     32 OAZ         -2.2970    -4.1800    -1.0310 os         1 Y30      -0.308900
     33 CAV         -2.2320    -4.9140    -2.2560 c3         1 Y30       0.255700
     34 CBE         -2.4210    -6.3820    -1.9730 ca         1 Y30      -0.091300
     35 CAM         -3.6890    -6.9300    -1.9790 ca         1 Y30      -0.066500
     36 CAN         -1.3230    -7.1810    -1.7120 ca         1 Y30      -0.066500
     37 CAL         -1.4940    -8.5280    -1.4530 ca         1 Y30      -0.109000
     38 CBC         -2.7640    -9.0760    -1.4540 ca         1 Y30      -0.028600
     39 ClH         -2.9810   -10.7680    -1.1290 cl         1 Y30      -0.051400
     40 CAK         -3.8620    -8.2770    -1.7200 ca         1 Y30      -0.109000
     41 H2           3.4170    -1.5170    -0.9650 hn         1 Y30       0.125700
     42 H3           5.1500    -1.7960    -3.2460 ha         1 Y30       0.104000
     43 H4           3.9950     0.8210    -6.4200 ha         1 Y30       0.104000
     44 H5           2.2000     1.7500    -5.0470 ha         1 Y30       0.108000
     45 H6           2.6460     2.8370    -1.1030 hn         1 Y30       0.206500
     46 H7           2.5040     5.3150    -3.8400 hc         1 Y30       0.014811
     47 H8           3.9640     6.0400    -3.1540 hc         1 Y30       0.014811
     48 H9           3.9220     4.3090    -3.5150 hc         1 Y30       0.014811
     49 H10          2.1940     6.8690    -1.2580 hc         1 Y30       0.014811
     50 H11          1.0130     5.9540    -2.2060 hc         1 Y30       0.014811
     51 H12          1.2400     5.5930    -0.4890 hc         1 Y30       0.014811
     52 H13          4.7080     4.2170    -0.9790 hc         1 Y30       0.014811
     53 H14          3.5900     4.8340     0.2450 hc         1 Y30       0.014811
     54 H15          4.4270     5.9570    -0.8360 hc         1 Y30       0.014811
     55 H16         -2.0830    -0.0830     0.8540 ha         1 Y30       0.114000
     56 H17         -2.3550    -2.5290     1.0020 ha         1 Y30       0.103500
     57 H18         -1.6350    -0.3840    -3.3840 ha         1 Y30       0.114000
     58 H19         -1.9070    -2.8290    -3.2430 ha         1 Y30       0.103500
     59 H20         -1.2670    -4.7570    -2.7210 h1         1 Y30       0.004200
     60 H21         -3.0140    -4.5720    -2.9240 h1         1 Y30       0.004200
     61 H22         -4.5490    -6.3040    -2.1870 ha         1 Y30       0.113000
     62 H23         -0.3280    -6.7520    -1.7110 ha         1 Y30       0.113000
     63 H24         -0.6340    -9.1540    -1.2480 ha         1 Y30       0.111000
     64 H25         -4.8560    -8.7060    -1.7230 ha         1 Y30       0.111000
     65 H26         -0.0050     1.6480    -3.3070 h1         1 Y30       0.053700
     66 H27          1.2800     2.3880     0.0710 h5         1 Y30      -0.023800
     67 H28         -2.0380     1.7550    -2.3180 h1         1 Y30       0.013200
     68 H29         -2.2290     1.8810    -0.5640 h1         1 Y30       0.013200
@<TRIPOS>BOND
     1     1     2 1   
     2     2     3 1   
     3     2     4 1   
     4     4     5 1   
     5     4    13 2   
     6     5     6 1   
     7     5    41 1   
     8     6     7 ar  
     9     6    12 ar  
    10     7     8 ar  
    11     7    42 1   
    12     8     9 1   
    13     8    10 ar  
    14    10    11 ar  
    15    10    43 1   
    16    11    12 ar  
    17    11    44 1   
    18    12    13 1   
    19    13    14 1   
    20    14    15 1   
    21    14    22 1   
    22    14    65 1   
    23    15    16 1   
    24    15    21 2   
    25    16    17 1   
    26    16    45 1   
    27    17    18 1   
    28    17    19 1   
    29    17    20 1   
    30    18    46 1   
    31    18    47 1   
    32    18    48 1   
    33    19    49 1   
    34    19    50 1   
    35    19    51 1   
    36    20    52 1   
    37    20    53 1   
    38    20    54 1   
    39    22    23 1   
    40    22    25 1   
    41    23    24 2   
    42    23    66 1   
    43    25    26 1   
    44    25    67 1   
    45    25    68 1   
    46    26    27 ar  
    47    26    29 ar  
    48    27    28 ar  
    49    27    55 1   
    50    28    31 ar  
    51    28    56 1   
    52    29    30 ar  
    53    29    57 1   
    54    30    31 ar  
    55    30    58 1   
    56    31    32 1   
    57    32    33 1   
    58    33    34 1   
    59    33    59 1   
    60    33    60 1   
    61    34    35 ar  
    62    34    36 ar  
    63    35    40 ar  
    64    35    61 1   
    65    36    37 ar  
    66    36    62 1   
    67    37    38 ar  
    68    37    63 1   
    69    38    39 1   
    70    38    40 ar  
    71    40    64 1   
@<TRIPOS>SUBSTRUCTURE
     1 Y30         1 TEMP              0 ****  ****    0 ROOT
