@<TRIPOS>MOLECULE
molecule
   61    63     1     0     0
SMALL
bcc


@<TRIPOS>ATOM
      1 O15          0.0000     0.0000     0.0000 o          1 Y38      -0.648300
      2 S13          1.4210     0.0000     0.0000 sy         1 Y38       1.443200
      3 O14          2.1980     0.0000     1.1900 o          1 Y38      -0.648300
      4 N16          1.8880    -1.3340    -0.8640 n3         1 Y38      -0.784500
      5 C17          2.9420    -2.2100    -0.3450 c3         1 Y38       0.143500
      6 C18          2.5800    -2.6580     1.0730 c3         1 Y38      -0.107700
      7 C19          1.2290    -3.3750     1.0510 c3         1 Y38      -0.081600
      8 C20          3.6560    -3.6120     1.5950 c3         1 Y38      -0.081600
      9 C21          4.2500    -1.4610    -0.3180 c          1 Y38       0.893600
     10 O22          4.2550    -0.2600    -0.2000 o          1 Y38      -0.842300
     11 O23          5.4080    -2.1320    -0.4230 o          1 Y38      -0.842300
     12 C24          1.2490    -1.6360    -2.1460 c3         1 Y38       0.230800
     13 C25          0.1080    -2.6320    -1.9240 c3         1 Y38       0.076000
     14 N26         -0.4930    -2.9820    -3.2140 ns         1 Y38      -0.576900
     15 C27         -1.5220    -3.8500    -3.2640 c          1 Y38       0.668700
     16 O28         -1.9530    -4.3420    -2.2400 o          1 Y38      -0.609100
     17 C29         -2.1290    -4.2020    -4.5660 ca         1 Y38      -0.136600
     18 C34         -3.1960    -5.1010    -4.6220 ca         1 Y38      -0.088000
     19 C31         -3.7570    -5.4250    -5.8400 ca         1 Y38      -0.142000
     20 C32         -3.2640    -4.8630    -7.0040 ca         1 Y38      -0.116000
     21 C3B         -1.6400    -3.6340    -5.7440 ca         1 Y38      -0.088000
     22 C33         -2.2060    -3.9720    -6.9560 ca         1 Y38      -0.142000
     23 C10          1.9190     1.4180    -0.9190 ca         1 Y38      -0.285500
     24 C11          3.1000     2.0660    -0.6010 ca         1 Y38      -0.006000
     25 C12          3.4950     3.1760    -1.3190 ca         1 Y38      -0.159000
     26 C7           2.7020     3.6450    -2.3650 cp         1 Y38      -0.008000
     27 C8           1.5140     2.9890    -2.6810 ca         1 Y38      -0.159000
     28 C9           1.1310     1.8760    -1.9600 ca         1 Y38      -0.006000
     29 C1           3.1220     4.8390    -3.1390 cp         1 Y38      -0.024000
     30 C2           4.3120     5.4930    -2.8270 ca         1 Y38      -0.118500
     31 C3           4.6980     6.6030    -3.5510 ca         1 Y38      -0.132500
     32 C4           3.9040     7.0670    -4.5840 ca         1 Y38      -0.139000
     33 C5           2.7210     6.4230    -4.8980 ca         1 Y38      -0.132500
     34 C6           2.3290     5.3090    -4.1850 ca         1 Y38      -0.118500
     35 H1           3.0360    -3.0790    -0.9850 h1         1 Y38       0.060700
     36 H2           2.5200    -1.7920     1.7210 hc         1 Y38       0.101700
     37 H3           1.2240    -4.1130     0.2580 hc         1 Y38       0.028700
     38 H4           1.0670    -3.8680     2.0030 hc         1 Y38       0.028700
     39 H5           0.4400    -2.6540     0.8790 hc         1 Y38       0.028700
     40 H6           4.5070    -3.0410     1.9450 hc         1 Y38       0.028700
     41 H7           3.2530    -4.1970     2.4140 hc         1 Y38       0.028700
     42 H8           3.9690    -4.2750     0.7980 hc         1 Y38       0.028700
     43 H10          0.8540    -0.7240    -2.5770 h1         1 Y38       0.044200
     44 H11          1.9790    -2.0680    -2.8210 h1         1 Y38       0.044200
     45 H12         -0.6430    -2.1840    -1.2850 h1         1 Y38       0.073200
     46 H13          0.4970    -3.5260    -1.4520 h1         1 Y38       0.073200
     47 H14         -0.1380    -2.5770    -4.0580 hn         1 Y38       0.307500
     48 H15         -3.5820    -5.5420    -3.7110 ha         1 Y38       0.143500
     49 H16         -4.5850    -6.1220    -5.8850 ha         1 Y38       0.128000
     50 H17         -3.7070    -5.1230    -7.9580 ha         1 Y38       0.124000
     51 H18         -0.8120    -2.9360    -5.7080 ha         1 Y38       0.143500
     52 H19         -1.8270    -3.5340    -7.8710 ha         1 Y38       0.128000
     53 H20          3.7150     1.7000     0.2120 ha         1 Y38       0.168500
     54 H21          4.4200     3.6820    -1.0700 ha         1 Y38       0.125000
     55 H22          0.8950     3.3480    -3.4940 ha         1 Y38       0.125000
     56 H23          0.2070     1.3650    -2.2040 ha         1 Y38       0.168500
     57 H24          4.9340     5.1300    -2.0180 ha         1 Y38       0.137500
     58 H25          5.6230     7.1120    -3.3090 ha         1 Y38       0.122500
     59 H26          4.2100     7.9400    -5.1480 ha         1 Y38       0.119000
     60 H27          2.1050     6.7900    -5.7100 ha         1 Y38       0.122500
     61 H28          1.4020     4.8050    -4.4320 ha         1 Y38       0.137500
@<TRIPOS>BOND
     1    20    22 ar
     2    20    19 ar
     3    22    21 ar
     4    19    18 ar
     5    21    17 ar
     6    18    17 ar
     7    17    15 1
     8    16    15 2
     9    15    14 1
    10    14    13 1
    11    13    12 1
    12     8     6 1
    13     6     7 1
    14     6     5 1
    15    12     4 1
    16     4     5 1
    17     4     2 1
    18     5     9 1
    19    10     9 1
    20     9    11 1
    21     2     3 2
    22     2     1 2
    23     2    23 1
    24    23    28 ar
    25    23    24 ar
    26    28    27 ar
    27    24    25 ar
    28    27    26 ar
    29    25    26 ar
    30    26    29 1
    31    30    29 ar
    32    30    31 ar
    33    29    34 ar
    34    31    32 ar
    35    34    33 ar
    36    32    33 ar
    37     5    35 1
    38     6    36 1
    39     7    37 1
    40     7    38 1
    41     7    39 1
    42     8    40 1
    43     8    41 1
    44     8    42 1
    45    12    43 1
    46    12    44 1
    47    13    45 1
    48    13    46 1
    49    14    47 1
    50    18    48 1
    51    19    49 1
    52    20    50 1
    53    21    51 1
    54    22    52 1
    55    24    53 1
    56    25    54 1
    57    27    55 1
    58    28    56 1
    59    30    57 1
    60    31    58 1
    61    32    59 1
    62    33    60 1
    63    34    61 1
@<TRIPOS>SUBSTRUCTURE
     1 Y38         1 TEMP              0 ****  ****    0 ROOT
