@<TRIPOS>MOLECULE
Y39
   38    38     1     0     0
SMALL
bcc


@<TRIPOS>ATOM
      1 OAB        -0.0340   -0.2000   -0.5310 o         1 Y39     -0.846300
      2 CAM         1.1570    0.1260   -0.2570 c         1 Y39      0.928600
      3 OAC         1.5630    0.3910    0.9110 o         1 Y39     -0.846300
      4 CAO         2.1440    0.2000   -1.4150 cx        1 Y39     -0.201700
      5 CAL         3.1930    1.2750   -1.4190 cx        1 Y39     -0.130400
      6 CAN         3.5900   -0.1550   -1.1670 cx        1 Y39     -0.138700
      7 CAK         4.3510   -0.9170   -2.2010 c3        1 Y39     -0.043400
      8 CAJ         5.8460   -0.8420   -1.9650 c3        1 Y39     -0.077400
      9 CAI         6.6110   -1.6210   -3.0140 c3        1 Y39     -0.079400
     10 CAH         8.1040   -1.5500   -2.7760 c3        1 Y39     -0.079400
     11 CAG         8.8680   -2.3280   -3.8250 c3        1 Y39     -0.078400
     12 CAF        10.3610   -2.2580   -3.5860 c3        1 Y39     -0.079400
     13 CAE        11.1260   -3.0350   -4.6360 c3        1 Y39     -0.079400
     14 CAD        12.6190   -2.9660   -4.3960 c3        1 Y39     -0.080400
     15 CAA        13.3840   -3.7380   -5.4390 c3        1 Y39     -0.091100
     16 H2          1.6870   -0.0960   -2.3770 hc        1 Y39      0.059700
     17 H3          3.4790    1.7490   -2.3740 hc        1 Y39      0.051200
     18 H4          3.2120    1.9800   -0.5690 hc        1 Y39      0.051200
     19 H5          3.8580   -0.4310   -0.1260 hc        1 Y39      0.091700
     20 H6          4.1160   -0.5220   -3.2260 hc        1 Y39      0.029200
     21 H7          4.0240   -1.9910   -2.1780 hc        1 Y39      0.029200
     22 H8          6.1730    0.2310   -1.9790 hc        1 Y39      0.038200
     23 H9          6.0850   -1.2470   -0.9470 hc        1 Y39      0.038200
     24 H10         6.2790   -2.6930   -3.0020 hc        1 Y39      0.034700
     25 H11         6.3730   -1.2140   -4.0320 hc        1 Y39      0.034700
     26 H12         8.3410   -1.9590   -1.7580 hc        1 Y39      0.037200
     27 H13         8.4350   -0.4790   -2.7860 hc        1 Y39      0.037200
     28 H14         8.5360   -3.4000   -3.8150 hc        1 Y39      0.037200
     29 H15         8.6310   -1.9190   -4.8430 hc        1 Y39      0.037200
     30 H16        10.5980   -2.6670   -2.5680 hc        1 Y39      0.038200
     31 H17        10.6930   -1.1860   -3.5950 hc        1 Y39      0.038200
     32 H18        10.8890   -2.6250   -5.6530 hc        1 Y39      0.038200
     33 H19        10.7930   -4.1060   -4.6270 hc        1 Y39      0.038200
     34 H20        12.9490   -1.8930   -4.4040 hc        1 Y39      0.037700
     35 H21        12.8530   -3.3750   -3.3780 hc        1 Y39      0.037700
     36 H22        13.1830   -3.3290   -6.4590 hc        1 Y39      0.029367
     37 H23        14.4820   -3.6750   -5.2440 hc        1 Y39      0.029367
     38 H24        13.0860   -4.8150   -5.4300 hc        1 Y39      0.029367
@<TRIPOS>BOND
     1    1    2 1   
     2    2    3 1   
     3    2    4 1   
     4    4    5 1   
     5    4    6 1   
     6    4   16 1   
     7    5    6 1   
     8    5   17 1   
     9    5   18 1   
    10    6    7 1   
    11    6   19 1   
    12    7    8 1   
    13    7   20 1   
    14    7   21 1   
    15    8    9 1   
    16    8   22 1   
    17    8   23 1   
    18    9   10 1   
    19    9   24 1   
    20    9   25 1   
    21   10   11 1   
    22   10   26 1   
    23   10   27 1   
    24   11   12 1   
    25   11   28 1   
    26   11   29 1   
    27   12   13 1   
    28   12   30 1   
    29   12   31 1   
    30   13   14 1   
    31   13   32 1   
    32   13   33 1   
    33   14   15 1   
    34   14   34 1   
    35   14   35 1   
    36   15   36 1   
    37   15   37 1   
    38   15   38 1   
@<TRIPOS>SUBSTRUCTURE
     1 Y39         1 TEMP              0 ****  ****    0 ROOT
