@<TRIPOS>MOLECULE
molecule
   38    38     1     0     0
SMALL
bcc


@<TRIPOS>ATOM
      1 OAB          0.0000     0.0000     0.0000 o          1 Y39      -0.847300
      2 CAM          1.3420     0.0000     0.0000 c          1 Y39       0.915600
      3 OAC          1.9460     0.0000     1.0470 o          1 Y39      -0.847300
      4 CAO          2.0970     0.0010    -1.3040 cx         1 Y39      -0.180700
      5 CAL          2.8780     1.2650    -1.6680 cx         1 Y39      -0.145400
      6 CAN          3.6250     0.0010    -1.2370 cx         1 Y39      -0.156700
      7 CAK          4.3790    -0.7770    -2.3170 c3         1 Y39      -0.043400
      8 CAJ          5.8770    -0.7600    -2.0060 c3         1 Y39      -0.078400
      9 CAI          6.6320    -1.5370    -3.0860 c3         1 Y39      -0.084400
     10 CAH          8.1300    -1.5190    -2.7740 c3         1 Y39      -0.082400
     11 CAG          8.8840    -2.2960    -3.8550 c3         1 Y39      -0.082400
     12 CAF         10.3830    -2.2790    -3.5430 c3         1 Y39      -0.082400
     13 CAE         11.1370    -3.0570    -4.6240 c3         1 Y39      -0.082400
     14 CAD         12.6350    -3.0390    -4.3120 c3         1 Y39      -0.084400
     15 CAA         13.3900    -3.8170    -5.3910 c3         1 Y39      -0.092100
     16 H2           1.6800    -0.5340    -2.1500 hc         1 Y39       0.056700
     17 H3           2.8450     2.0610    -0.9350 hc         1 Y39       0.055700
     18 H4           2.9240     1.4980    -2.7250 hc         1 Y39       0.055700
     19 H5           4.0350     0.0360    -0.2340 hc         1 Y39       0.102700
     20 H6           4.0260    -1.8010    -2.3370 hc         1 Y39       0.031700
     21 H7           4.2050    -0.3160    -3.2820 hc         1 Y39       0.031700
     22 H8           6.0510    -1.2210    -1.0410 hc         1 Y39       0.040700
     23 H9           6.2300     0.2650    -1.9850 hc         1 Y39       0.040700
     24 H10          6.2800    -2.5610    -3.1070 hc         1 Y39       0.036200
     25 H11          6.4590    -1.0750    -4.0510 hc         1 Y39       0.036200
     26 H12          8.3030    -1.9800    -1.8090 hc         1 Y39       0.039700
     27 H13          8.4820    -0.4950    -2.7530 hc         1 Y39       0.039700
     28 H14          8.5320    -3.3200    -3.8760 hc         1 Y39       0.038700
     29 H15          8.7110    -1.8350    -4.8190 hc         1 Y39       0.038700
     30 H16         10.7350    -1.2550    -3.5230 hc         1 Y39       0.040200
     31 H17         10.5560    -2.7400    -2.5780 hc         1 Y39       0.040200
     32 H18         10.7850    -4.0810    -4.6440 hc         1 Y39       0.039700
     33 H19         10.9640    -2.5960    -5.5890 hc         1 Y39       0.039700
     34 H20         12.8080    -3.5000    -3.3470 hc         1 Y39       0.039200
     35 H21         12.9870    -2.0150    -4.2910 hc         1 Y39       0.039200
     36 H22         13.2170    -3.3550    -6.3560 hc         1 Y39       0.029700
     37 H23         14.4500    -3.8040    -5.1700 hc         1 Y39       0.029700
     38 H24         13.0370    -4.8410    -5.4120 hc         1 Y39       0.029700
@<TRIPOS>BOND
     1     3     2 1
     2     4     5 1
     3     4     2 1
     4     4     6 1
     5     5     6 1
     6     2     1 1
     7     7     6 1
     8     7     8 1
     9     9     8 1
    10     9    10 1
    11    11    10 1
    12    11    12 1
    13    12    13 1
    14    14    13 1
    15    14    15 1
    16     4    16 1
    17     5    17 1
    18     5    18 1
    19     6    19 1
    20     7    20 1
    21     7    21 1
    22     8    22 1
    23     8    23 1
    24     9    24 1
    25     9    25 1
    26    10    26 1
    27    10    27 1
    28    11    28 1
    29    11    29 1
    30    12    30 1
    31    12    31 1
    32    13    32 1
    33    13    33 1
    34    14    34 1
    35    14    35 1
    36    15    36 1
    37    15    37 1
    38    15    38 1
@<TRIPOS>SUBSTRUCTURE
     1 Y39         1 TEMP              0 ****  ****    0 ROOT
