@<TRIPOS>MOLECULE
Y3A
   57    58     1     0     0
SMALL
bcc


@<TRIPOS>ATOM
      1 C23          0.0000     0.0000     0.0000 c          1 Y3A       0.677100
      2 O41          1.2150     0.0000     0.0000 o          1 Y3A      -0.671000
      3 O5          -0.6720     0.0000     1.1660 os         1 Y3A      -0.417900
      4 C16          0.1180     0.0010     2.3840 c3         1 Y3A       0.302700
      5 C20         -0.7990     0.0010     3.5800 ca         1 Y3A      -0.119300
      6 C19         -1.2250     1.1990     4.1240 ca         1 Y3A      -0.074000
      7 C18         -2.0700     1.1990     5.2170 ca         1 Y3A      -0.107000
      8 C17         -2.4900     0.0020     5.7660 ca         1 Y3A      -0.091000
      9 C22         -2.0660    -1.1950     5.2220 ca         1 Y3A      -0.107000
     10 C21         -1.2190    -1.1960     4.1290 ca         1 Y3A      -0.074000
     11 N31         -0.6750     0.0050    -1.1670 ns         1 Y3A      -0.164900
     12 C14          0.0580     0.0110    -2.4360 c3         1 Y3A      -0.003000
     13 C13         -0.9220     0.0160    -3.5810 c          1 Y3A       0.559100
     14 O31         -2.1140     0.0140    -3.3590 o          1 Y3A      -0.665100
     15 N3          -0.4730     0.0210    -4.8520 ns         1 Y3A      -0.169900
     16 CA3         -1.4260     0.0260    -5.9650 c3         1 Y3A      -0.021000
     17 C3          -0.6720     0.0310    -7.2700 c          1 Y3A       0.565100
     18 O3           0.5400     0.0320    -7.2700 o          1 Y3A      -0.626100
     19 C4          -0.2510     1.4810   -10.0780 c3         1 Y3A       0.157100
     20 O4           0.5680     2.0460    -9.0530 oh         1 Y3A      -0.558800
     21 CA4         -0.6150     0.0430    -9.7060 c3         1 Y3A       0.016700
     22 N4          -1.3470     0.0360    -8.4370 ns         1 Y3A      -0.178900
     23 CB4         -1.4920    -0.5630   -10.8040 c3         1 Y3A       0.012900
     24 CG4         -1.7480    -2.0160   -10.4980 ca         1 Y3A      -0.100300
     25 CD1         -2.8460    -2.3800    -9.7410 ca         1 Y3A      -0.097000
     26 CD2         -0.8890    -2.9850   -10.9790 ca         1 Y3A      -0.097000
     27 CE1         -3.0820    -3.7120    -9.4610 ca         1 Y3A      -0.092500
     28 CE2         -1.1250    -4.3190   -10.6980 ca         1 Y3A      -0.092500
     29 CZ4         -2.2200    -4.6820    -9.9370 ca         1 Y3A      -0.096000
     30 H21          0.7430     0.8860     2.4080 h1         1 Y3A       0.013700
     31 H22          0.7440    -0.8830     2.4090 h1         1 Y3A       0.013700
     32 H25         -0.8950     2.1370     3.6930 ha         1 Y3A       0.106500
     33 H24         -2.4040     2.1370     5.6430 ha         1 Y3A       0.103000
     34 H23         -3.1530     0.0020     6.6230 ha         1 Y3A       0.101000
     35 H27         -2.3950    -2.1330     5.6520 ha         1 Y3A       0.103000
     36 H26         -0.8860    -2.1340     3.7020 ha         1 Y3A       0.106500
     37 H20         -1.6750    -0.0170    -1.1660 hn         1 Y3A       0.205500
     38 H18          0.6810     0.8950    -2.4900 h1         1 Y3A       0.040200
     39 H19          0.6810    -0.8740    -2.4970 h1         1 Y3A       0.040200
     40 HN3          0.5100     0.0050    -5.0350 hn         1 Y3A       0.207500
     41 HA3         -2.0490    -0.8590    -5.9110 h1         1 Y3A       0.038700
     42 HA3A        -2.0480     0.9100    -5.9030 h1         1 Y3A       0.038700
     43 HO4          0.5340     2.9870    -9.1070 ho         1 Y3A       0.394000
     44 HA4          0.2900    -0.5440    -9.6040 h1         1 Y3A       0.074700
     45 HN4         -2.3460     0.0820    -8.4360 hn         1 Y3A       0.175500
     46 HB4         -0.9870    -0.4780   -11.7580 hc         1 Y3A       0.030700
     47 HB4A        -2.4350    -0.0310   -10.8460 hc         1 Y3A       0.030700
     48 HD1         -3.5230    -1.6200    -9.3680 ha         1 Y3A       0.103500
     49 HD2         -0.0310    -2.7010   -11.5760 ha         1 Y3A       0.103500
     50 HE1         -3.9410    -3.9970    -8.8660 ha         1 Y3A       0.105500
     51 HE2         -0.4500    -5.0790   -11.0730 ha         1 Y3A       0.105500
     52 HZ4         -2.4040    -5.7270    -9.7170 ha         1 Y3A       0.105000
     53 H4          -1.1560     2.0670   -10.1810 h1         1 Y3A       0.009700
     54 C15          0.5130     1.4870   -11.4040 c3         1 Y3A       0.034000
     55 Cl1          0.8130     3.1890   -11.9170 cl         1 Y3A      -0.137400
     56 H15          1.4600     0.9760   -11.2760 h1         1 Y3A       0.040200
     57 H15A        -0.0720     0.9790   -12.1610 h1         1 Y3A       0.040200
@<TRIPOS>BOND
     1     1     2 2   
     2     1     3 1   
     3     1    11 1   
     4     3     4 1   
     5     4     5 1   
     6     4    30 1   
     7     4    31 1   
     8     5     6 ar  
     9     5    10 ar  
    10     6     7 ar  
    11     6    32 1   
    12     7     8 ar  
    13     7    33 1   
    14     8     9 ar  
    15     8    34 1   
    16     9    10 ar  
    17     9    35 1   
    18    10    36 1   
    19    11    12 1   
    20    11    37 1   
    21    12    13 1   
    22    12    38 1   
    23    12    39 1   
    24    13    14 2   
    25    13    15 1   
    26    15    16 1   
    27    15    40 1   
    28    16    17 1   
    29    16    41 1   
    30    16    42 1   
    31    17    18 2   
    32    17    22 1   
    33    19    20 1   
    34    19    21 1   
    35    19    53 1   
    36    19    54 1   
    37    20    43 1   
    38    21    22 1   
    39    21    23 1   
    40    21    44 1   
    41    22    45 1   
    42    23    24 1   
    43    23    46 1   
    44    23    47 1   
    45    24    25 ar  
    46    24    26 ar  
    47    25    27 ar  
    48    25    48 1   
    49    26    28 ar  
    50    26    49 1   
    51    27    29 ar  
    52    27    50 1   
    53    28    29 ar  
    54    28    51 1   
    55    29    52 1   
    56    54    55 1   
    57    54    56 1   
    58    54    57 1   
@<TRIPOS>SUBSTRUCTURE
     1 Y3A         1 TEMP              0 ****  ****    0 ROOT
