@<TRIPOS>MOLECULE
molecule
   57    58     1     0     0
SMALL
bcc


@<TRIPOS>ATOM
      1 C23          0.0000     0.0000     0.0000 c          1 Y3A       0.752100
      2 O41          1.2150     0.0000     0.0000 o          1 Y3A      -0.621000
      3 O5          -0.6720     0.0000     1.1660 os         1 Y3A      -0.433900
      4 C16          0.1180     0.0010     2.3840 c3         1 Y3A       0.216700
      5 C20         -0.7990     0.0010     3.5800 ca         1 Y3A      -0.101300
      6 C19         -1.2250     1.1990     4.1240 ca         1 Y3A      -0.101000
      7 C18         -2.0700     1.1990     5.2170 ca         1 Y3A      -0.133000
      8 C17         -2.4900     0.0020     5.7660 ca         1 Y3A      -0.116000
      9 C22         -2.0660    -1.1950     5.2220 ca         1 Y3A      -0.133000
     10 C21         -1.2190    -1.1960     4.1290 ca         1 Y3A      -0.101000
     11 N31         -0.6750     0.0050    -1.1670 ns         1 Y3A      -0.565900
     12 C14          0.0580     0.0110    -2.4360 c3         1 Y3A       0.062000
     13 C13         -0.9220     0.0160    -3.5810 c          1 Y3A       0.650100
     14 O31         -2.1140     0.0140    -3.3590 o          1 Y3A      -0.619100
     15 N3          -0.4730     0.0210    -4.8520 ns         1 Y3A      -0.570900
     16 CA3         -1.4260     0.0260    -5.9650 c3         1 Y3A       0.040000
     17 C3          -0.6720     0.0310    -7.2700 c          1 Y3A       0.653100
     18 O3           0.5400     0.0320    -7.2700 o          1 Y3A      -0.585100
     19 C4          -0.2510     1.4810   -10.0780 c3         1 Y3A       0.120100
     20 O4           0.5680     2.0460    -9.0530 oh         1 Y3A      -0.576800
     21 CA4         -0.6150     0.0430    -9.7060 c3         1 Y3A       0.127700
     22 N4          -1.3470     0.0360    -8.4370 ns         1 Y3A      -0.573900
     23 CB4         -1.4920    -0.5630   -10.8040 c3         1 Y3A      -0.051100
     24 CG4         -1.7480    -2.0160   -10.4980 ca         1 Y3A      -0.087300
     25 CD1         -2.8460    -2.3800    -9.7410 ca         1 Y3A      -0.121500
     26 CD2         -0.8890    -2.9850   -10.9790 ca         1 Y3A      -0.121500
     27 CE1         -3.0820    -3.7120    -9.4610 ca         1 Y3A      -0.121500
     28 CE2         -1.1250    -4.3190   -10.6980 ca         1 Y3A      -0.121500
     29 CZ4         -2.2200    -4.6820    -9.9370 ca         1 Y3A      -0.124000
     30 H21          0.7430     0.8860     2.4080 h1         1 Y3A       0.056700
     31 H22          0.7440    -0.8830     2.4090 h1         1 Y3A       0.056700
     32 H25         -0.8950     2.1370     3.6930 ha         1 Y3A       0.134000
     33 H24         -2.4040     2.1370     5.6430 ha         1 Y3A       0.132000
     34 H23         -3.1530     0.0020     6.6230 ha         1 Y3A       0.130000
     35 H27         -2.3950    -2.1330     5.6520 ha         1 Y3A       0.132000
     36 H26         -0.8860    -2.1340     3.7020 ha         1 Y3A       0.134000
     37 H20         -1.6750    -0.0170    -1.1660 hn         1 Y3A       0.349500
     38 H18          0.6810     0.8950    -2.4900 h1         1 Y3A       0.075200
     39 H19          0.6810    -0.8740    -2.4970 h1         1 Y3A       0.075200
     40 HN3          0.5100     0.0050    -5.0350 hn         1 Y3A       0.345500
     41 HA3         -2.0490    -0.8590    -5.9110 h1         1 Y3A       0.071200
     42 HA3A        -2.0480     0.9100    -5.9030 h1         1 Y3A       0.071200
     43 HO4          0.5340     2.9870    -9.1070 ho         1 Y3A       0.409000
     44 HA4          0.2900    -0.5440    -9.6040 h1         1 Y3A       0.098700
     45 HN4         -2.3460     0.0820    -8.4360 hn         1 Y3A       0.314500
     46 HB4         -0.9870    -0.4780   -11.7580 hc         1 Y3A       0.058200
     47 HB4A        -2.4350    -0.0310   -10.8460 hc         1 Y3A       0.058200
     48 HD1         -3.5230    -1.6200    -9.3680 ha         1 Y3A       0.126000
     49 HD2         -0.0310    -2.7010   -11.5760 ha         1 Y3A       0.126000
     50 HE1         -3.9410    -3.9970    -8.8660 ha         1 Y3A       0.133000
     51 HE2         -0.4500    -5.0790   -11.0730 ha         1 Y3A       0.133000
     52 HZ4         -2.4040    -5.7270    -9.7170 ha         1 Y3A       0.133000
     53 H4          -1.1560     2.0670   -10.1810 h1         1 Y3A       0.041700
     54 C15          0.5130     1.4870   -11.4040 c3         1 Y3A       0.014000
     55 Cl1          0.8130     3.1890   -11.9170 cl         1 Y3A      -0.201400
     56 H15          1.4600     0.9760   -11.2760 h1         1 Y3A       0.076200
     57 H15A        -0.0720     0.9790   -12.1610 h1         1 Y3A       0.076200
@<TRIPOS>BOND
     1    15    16 1
     2    16    17 1
     3    17    18 2
     4    17    22 1
     5    19    20 1
     6    19    21 1
     7    19    54 1
     8    21    22 1
     9    21    23 1
    10    23    24 1
    11    24    25 ar
    12    24    26 ar
    13    25    27 ar
    14    26    28 ar
    15    27    29 ar
    16    28    29 ar
    17    15    13 1
    18    13    12 1
    19    13    14 2
    20    12    11 1
    21    11     1 1
    22     1     2 2
    23     1     3 1
    24     3     4 1
    25     8     7 ar
    26     7     6 ar
    27     6     5 ar
    28     5    10 ar
    29    10     9 ar
    30     8     9 ar
    31     5     4 1
    32    15    40 1
    33    16    41 1
    34    16    42 1
    35    19    53 1
    36    20    43 1
    37    21    44 1
    38    22    45 1
    39    23    46 1
    40    23    47 1
    41    25    48 1
    42    26    49 1
    43    27    50 1
    44    28    51 1
    45    29    52 1
    46    54    56 1
    47    54    57 1
    48    54    55 1
    49    12    38 1
    50    12    39 1
    51    11    37 1
    52     4    30 1
    53     4    31 1
    54     8    34 1
    55     7    33 1
    56     6    32 1
    57    10    36 1
    58     9    35 1
@<TRIPOS>SUBSTRUCTURE
     1 Y3A         1 TEMP              0 ****  ****    0 ROOT
