@<TRIPOS>MOLECULE
Y3J
   31    33     1     0     0
SMALL
bcc


@<TRIPOS>ATOM
      1 N1           0.0000     0.0000     0.0000 nb         1 Y3J      -0.744000
      2 C2           1.3210     0.0000     0.0000 ca         1 Y3J       0.692900
      3 N3           2.0260     0.0000     1.1120 nb         1 Y3J      -0.673000
      4 C4           1.4250     0.0010     2.2960 ca         1 Y3J       0.279800
      5 C5           0.0200     0.0010     2.3490 ca         1 Y3J      -0.247200
      6 C6          -0.6890     0.0000     1.1360 ca         1 Y3J       0.592200
      7 N6          -2.0730     0.0010     1.1260 nv         1 Y3J      -0.480500
      8 N7          -0.3290     0.0000     3.6570 nc         1 Y3J      -0.491100
      9 C8           0.7440     0.0000     4.3940 cd         1 Y3J       0.243700
     10 N9           1.8530     0.0010     3.6000 na         1 Y3J       0.202000
     11 FAB          4.2050    -1.0490     8.0950 f          1 Y3J      -0.214800
     12 FAG          5.5720     0.7760     7.9500 f          1 Y3J      -0.214800
     13 CAH          4.4090     0.1760     7.4530 c3         1 Y3J       0.393900
     14 CAI          4.5760    -0.0570     5.9500 c3         1 Y3J       0.105100
     15 OAJ          3.3430    -0.5400     5.3920 os         1 Y3J      -0.386600
     16 CAK          3.2450    -0.0010     4.0560 c3         1 Y3J       0.159800
     17 CAQ          4.9060     1.2730     5.2470 c3         1 Y3J       0.134100
     18 CAR          3.7680     1.4500     4.2130 c3         1 Y3J       0.126100
     19 OAS          6.1720     1.1900     4.5890 oh         1 Y3J      -0.544800
     20 OAT          4.2780     1.9450     2.9730 oh         1 Y3J      -0.532800
     21 H2           1.8430    -0.0000    -0.9490 h5         1 Y3J      -0.003900
     22 HN6         -2.5670     0.0010     0.2560 hn         1 Y3J       0.276800
     23 HN6A        -2.5790     0.0010     1.9890 hn         1 Y3J       0.276800
     24 H8           0.7540    -0.0000     5.4770 h5         1 Y3J       0.037800
     25 HAH          3.5550     0.8210     7.6270 h2         1 Y3J       0.034700
     26 HAI          5.3670    -0.7740     5.7680 h1         1 Y3J       0.068700
     27 HAK          3.8750    -0.5590     3.3750 h2         1 Y3J       0.077700
     28 HAQ          4.8970     2.0890     5.9610 h1         1 Y3J       0.019700
     29 HOAS         6.7420     1.8650     4.9180 ho         1 Y3J       0.396000
     30 HAR          2.9930     2.0970     4.6050 h1         1 Y3J       0.022700
     31 HAT          4.1200     2.8730     2.9160 ho         1 Y3J       0.391000
@<TRIPOS>BOND
     1     1     2 ar  
     2     1     6 ar  
     3     2     3 ar  
     4     2    21 1   
     5     3     4 ar  
     6     4     5 ar  
     7     4    10 1   
     8     5     6 ar  
     9     5     8 1   
    10     6     7 1   
    11     7    22 1   
    12     7    23 1   
    13     8     9 2   
    14     9    10 1   
    15     9    24 1   
    16    10    16 1   
    17    11    13 1   
    18    12    13 1   
    19    13    14 1   
    20    13    25 1   
    21    14    15 1   
    22    14    17 1   
    23    14    26 1   
    24    15    16 1   
    25    16    18 1   
    26    16    27 1   
    27    17    18 1   
    28    17    19 1   
    29    17    28 1   
    30    18    20 1   
    31    18    30 1   
    32    19    29 1   
    33    20    31 1   
@<TRIPOS>SUBSTRUCTURE
     1 Y3J         1 TEMP              0 ****  ****    0 ROOT
