@<TRIPOS>MOLECULE
molecule
   31    33     1     0     0
SMALL
bcc


@<TRIPOS>ATOM
      1 N1           0.0000     0.0000     0.0000 nb         1 Y3J      -0.836000
      2 C2           1.3210     0.0000     0.0000 ca         1 Y3J       0.743900
      3 N3           2.0260     0.0000     1.1120 nb         1 Y3J      -0.786000
      4 C4           1.4250     0.0010     2.2960 ca         1 Y3J       0.483800
      5 C5           0.0200     0.0010     2.3490 ca         1 Y3J      -0.214200
      6 C6          -0.6890     0.0000     1.1360 ca         1 Y3J       0.789200
      7 N6          -2.0730     0.0010     1.1260 nv         1 Y3J      -0.983500
      8 N7          -0.3290     0.0000     3.6570 nc         1 Y3J      -0.584100
      9 C8           0.7440     0.0000     4.3940 cd         1 Y3J       0.423700
     10 N9           1.8530     0.0010     3.6000 na         1 Y3J      -0.255000
     11 FAB          4.2050    -1.0490     8.0950 f          1 Y3J      -0.230300
     12 FAG          5.5720     0.7760     7.9500 f          1 Y3J      -0.230300
     13 CAH          4.4090     0.1760     7.4530 c3         1 Y3J       0.400900
     14 CAI          4.5760    -0.0570     5.9500 c3         1 Y3J       0.071100
     15 OAJ          3.3430    -0.5400     5.3920 os         1 Y3J      -0.405600
     16 CAK          3.2450    -0.0010     4.0560 c3         1 Y3J       0.265800
     17 CAQ          4.9060     1.2730     5.2470 c3         1 Y3J       0.091100
     18 CAR          3.7680     1.4500     4.2130 c3         1 Y3J       0.091100
     19 OAS          6.1720     1.1900     4.5890 oh         1 Y3J      -0.565800
     20 OAT          4.2780     1.9450     2.9730 oh         1 Y3J      -0.552800
     21 H2           1.8430    -0.0000    -0.9490 h5         1 Y3J       0.063100
     22 HN6         -2.5670     0.0010     0.2560 hn         1 Y3J       0.450800
     23 HN6A        -2.5790     0.0010     1.9890 hn         1 Y3J       0.450800
     24 H8           0.7540    -0.0000     5.4770 h5         1 Y3J       0.085800
     25 HAH          3.5550     0.8210     7.6270 h2         1 Y3J       0.072700
     26 HAI          5.3670    -0.7740     5.7680 h1         1 Y3J       0.104700
     27 HAK          3.8750    -0.5590     3.3750 h2         1 Y3J       0.120700
     28 HAQ          4.8970     2.0890     5.9610 h1         1 Y3J       0.054700
     29 HOAS         6.7420     1.8650     4.9180 ho         1 Y3J       0.412000
     30 HAR          2.9930     2.0970     4.6050 h1         1 Y3J       0.058700
     31 HAT          4.1200     2.8730     2.9160 ho         1 Y3J       0.408000
@<TRIPOS>BOND
     1     1     2 ar
     2     1     6 ar
     3     2     3 ar
     4     3     4 ar
     5     4     5 ar
     6     4    10 1
     7     5     6 ar
     8     5     8 1
     9     6     7 1
    10     8     9 2
    11     9    10 1
    12    10    16 1
    13    11    13 1
    14    12    13 1
    15    13    14 1
    16    14    15 1
    17    14    17 1
    18    15    16 1
    19    16    18 1
    20    17    18 1
    21    17    19 1
    22    18    20 1
    23     2    21 1
    24     7    22 1
    25     7    23 1
    26     9    24 1
    27    13    25 1
    28    14    26 1
    29    16    27 1
    30    17    28 1
    31    19    29 1
    32    18    30 1
    33    20    31 1
@<TRIPOS>SUBSTRUCTURE
     1 Y3J         1 TEMP              0 ****  ****    0 ROOT
