@<TRIPOS>MOLECULE
molecule
   21    22     1     0     0
SMALL
bcc


@<TRIPOS>ATOM
      1 NAG          0.0000     0.0000     0.0000 nc         1 Y3L      -0.643100
      2 CAM          1.3480     0.0000     0.0000 ca         1 Y3L       0.148400
      3 CAE          2.2310     0.0000     1.1010 ca         1 Y3L      -0.076000
      4 CAD          3.5880     0.0010     0.9030 ca         1 Y3L      -0.118000
      5 CAK          4.1150     0.0020    -0.3810 ca         1 Y3L       0.025400
      6 ClAC         5.8350     0.0040    -0.6150 cl         1 Y3L      -0.104400
      7 CAF          3.2720     0.0020    -1.4710 ca         1 Y3L      -0.072000
      8 CAN          1.8910     0.0010    -1.2880 ca         1 Y3L      -0.097100
      9 SAI          0.5670     0.0010    -2.4500 ss         1 Y3L      -0.001100
     10 CAL         -0.6030     0.0000    -1.1370 cd         1 Y3L       0.468800
     11 NAH         -1.9780    -0.0020    -1.3030 ns         1 Y3L      -0.451400
     12 CAJ         -2.5070    -0.0010    -2.5440 c          1 Y3L       0.657100
     13 OAB         -1.7800     0.0010    -3.5130 o          1 Y3L      -0.574100
     14 CAA         -4.0040    -0.0030    -2.7240 c3         1 Y3L      -0.165100
     15 HAH         -2.5790     0.0200    -0.5030 hn         1 Y3L       0.346500
     16 HAE          1.8350    -0.0010     2.1090 ha         1 Y3L       0.149000
     17 HAD          4.2550     0.0010     1.7570 ha         1 Y3L       0.148000
     18 HAF          3.6840     0.0030    -2.4730 ha         1 Y3L       0.149000
     19 HAA1        -4.4240     0.8860    -2.2700 hc         1 Y3L       0.070367
     20 HAA2        -4.2400    -0.0150    -3.7820 hc         1 Y3L       0.070367
     21 HAA3        -4.4240    -0.8830    -2.2510 hc         1 Y3L       0.070367
@<TRIPOS>BOND
     1     1     2 1
     2     1    10 2
     3     2     3 ar
     4     2     8 ar
     5     3     4 ar
     6     4     5 ar
     7     5     6 1
     8     5     7 ar
     9     7     8 ar
    10     8     9 1
    11     9    10 1
    12    10    11 1
    13    11    12 1
    14    12    13 2
    15    12    14 1
    16    11    15 1
    17     3    16 1
    18     4    17 1
    19     7    18 1
    20    14    19 1
    21    14    20 1
    22    14    21 1
@<TRIPOS>SUBSTRUCTURE
     1 Y3L         1 TEMP              0 ****  ****    0 ROOT
