@<TRIPOS>MOLECULE
Y3M
   56    61     1     0     0
SMALL
bcc


@<TRIPOS>ATOM
      1 O17        -0.6520    0.3970   -0.0790 o         1 Y3M     -0.511000
      2 C16         0.5690    0.2510   -0.1430 c         1 Y3M      0.674700
      3 O18         1.2710    0.1830    1.0400 os        1 Y3M     -0.468900
      4 C19         0.4920    0.2890    2.2450 c3        1 Y3M      0.144400
      5 C20         1.4700    0.1920    3.3900 c3        1 Y3M     -0.101100
      6 C7          1.4130    0.1400   -1.3230 cc        1 Y3M     -0.147900
      7 C3          1.0180    0.1070   -2.6840 cd        1 Y3M      0.143400
      8 N6          2.8100    0.0410   -1.2860 na        1 Y3M     -0.141100
      9 C5          3.3060   -0.0470   -2.5730 cc        1 Y3M     -0.090300
     10 C4          2.2290   -0.0100   -3.4690 cd        1 Y3M     -0.206300
     11 C2          2.1760   -0.0600   -4.9440 c3        1 Y3M      0.047500
     12 C8          0.7650   -0.2660   -5.4330 ce        1 Y3M     -0.276800
     13 C13         0.5400   -0.7030   -6.7010 c2        1 Y3M      0.121900
     14 O14         1.6200   -1.0380   -7.4820 oh        1 Y3M     -0.493100
     15 C12        -0.8230   -0.8310   -7.2900 c3        1 Y3M     -0.077200
     16 C11        -1.7720    0.1330   -6.6090 c3        1 Y3M     -0.075400
     17 C10        -1.7570   -0.0540   -5.1100 c3        1 Y3M     -0.124700
     18 C9         -0.3670   -0.0240   -4.5190 ce        1 Y3M      0.506600
     19 N1         -0.2600    0.1570   -3.2250 nf        1 Y3M     -0.539100
     20 C15         2.7840    1.1690   -5.5290 cc        1 Y3M      0.302000
     21 O24         2.0630    2.3560   -5.4600 os        1 Y3M     -0.354800
     22 C23         2.8770    3.3660   -6.0130 cc        1 Y3M      0.212000
     23 C22         4.0790    2.8040   -6.4200 cd        1 Y3M     -0.170300
     24 C21         4.0130    1.3960   -6.1290 cd        1 Y3M     -0.280300
     25 S25         2.2560    4.8980   -6.2090 ss        1 Y3M     -0.033500
     26 C26         1.7470    5.3620   -4.6500 cc        1 Y3M      0.348700
     27 N28         1.8640    6.6260   -4.1780 nd        1 Y3M     -0.535100
     28 C29         1.2300    6.6220   -2.9260 ca        1 Y3M      0.057400
     29 C34         1.0300    7.6450   -1.9830 ca        1 Y3M     -0.068000
     30 C33         0.3710    7.3320   -0.8070 ca        1 Y3M     -0.157000
     31 C32        -0.1000    6.0310   -0.5400 ca        1 Y3M     -0.113000
     32 C31         0.0710    4.9920   -1.4400 ca        1 Y3M     -0.132000
     33 C30         0.7350    5.2850   -2.6410 ca        1 Y3M     -0.066200
     34 N27         1.0550    4.5140   -3.7570 na        1 Y3M     -0.253300
     35 H191       -0.2580   -0.5440    2.2610 h1        1 Y3M      0.053200
     36 H192       -0.0500    1.2700    2.2370 h1        1 Y3M      0.053200
     37 H201        2.0150   -0.7820    3.3610 hc        1 Y3M      0.047033
     38 H202        2.2200    1.0170    3.3380 hc        1 Y3M      0.047033
     39 H203        0.9100    0.2680    4.3520 hc        1 Y3M      0.047033
     40 H6          3.3360    0.0450   -0.4480 hn        1 Y3M      0.317700
     41 H5          4.3780   -0.1240   -2.7680 h4        1 Y3M      0.177000
     42 H2          2.8040   -0.9280   -5.3150 hc        1 Y3M      0.089700
     43 H14         1.2930   -1.2970   -8.3560 ho        1 Y3M      0.424000
     44 H121       -1.1810   -1.8880   -7.1570 hc        1 Y3M      0.063700
     45 H122       -0.7910   -0.6190   -8.3920 hc        1 Y3M      0.063700
     46 H111       -2.8130   -0.0350   -6.9920 hc        1 Y3M      0.057700
     47 H112       -1.4830    1.1860   -6.8650 hc        1 Y3M      0.057700
     48 H101       -2.3950    0.7390   -4.6340 hc        1 Y3M      0.074200
     49 H102       -2.2140   -1.0490   -4.8500 hc        1 Y3M      0.074200
     50 H21         4.7860    0.6630   -6.3450 ha        1 Y3M      0.164000
     51 H22         4.9220    3.3210   -6.8740 ha        1 Y3M      0.169000
     52 H27         0.9510    3.5340   -3.8480 hn        1 Y3M      0.323700
     53 H34         1.3930    8.6620   -2.1850 ha        1 Y3M      0.145000
     54 H33         0.2050    8.1170   -0.0540 ha        1 Y3M      0.130000
     55 H32        -0.6200    5.8400    0.4100 ha        1 Y3M      0.131000
     56 H31        -0.3030    3.9810   -1.2300 ha        1 Y3M      0.147000
@<TRIPOS>BOND
     1    1    2 2
     2    2    3 1
     3    2    6 1
     4    3    4 1
     5    4    5 1
     6    4   35 1
     7    4   36 1
     8    5   37 1
     9    5   38 1
    10    5   39 1
    11    6    7 2
    12    6    8 1
    13    7   10 1
    14    7   19 1
    15    8    9 1
    16    8   40 1
    17    9   10 2
    18    9   41 1
    19   10   11 1
    20   11   12 1
    21   11   20 1
    22   11   42 1
    23   12   13 2
    24   12   18 1
    25   13   14 1
    26   13   15 1
    27   14   43 1
    28   15   16 1
    29   15   44 1
    30   15   45 1
    31   16   17 1
    32   16   46 1
    33   16   47 1
    34   17   18 1
    35   17   48 1
    36   17   49 1
    37   18   19 2
    38   20   21 1
    39   20   24 2
    40   21   22 1
    41   22   23 2
    42   22   25 1
    43   23   24 1
    44   23   51 1
    45   24   50 1
    46   25   26 1
    47   26   27 2
    48   26   34 1
    49   27   28 1
    50   28   29 ar
    51   28   33 ar
    52   29   30 ar
    53   29   53 1
    54   30   31 ar
    55   30   54 1
    56   31   32 ar
    57   31   55 1
    58   32   33 ar
    59   32   56 1
    60   33   34 1
    61   34   52 1
@<TRIPOS>SUBSTRUCTURE
     1 Y3M         1 TEMP              0 ****  ****    0 ROOT
