@<TRIPOS>MOLECULE
molecule
   43    45     1     0     0
SMALL
bcc


@<TRIPOS>ATOM
      1 CAW          0.0000     0.0000     0.0000 ca         1 Y46      -0.116500
      2 CAX          1.3820     0.0000     0.0000 ca         1 Y46      -0.108500
      3 CBA          2.0730     0.0000     1.1970 ca         1 Y46      -0.092000
      4 CAZ          1.3820     0.0010     2.3940 ca         1 Y46      -0.108500
      5 CAY         -0.0000     0.0020     2.3940 ca         1 Y46      -0.116500
      6 CAV         -0.6910    -0.0000     1.1970 ca         1 Y46      -0.156300
      7 CAU         -2.1980     0.0010     1.1960 c3         1 Y46       0.153300
      8 NAN         -2.6870    -1.3810     1.1970 n          1 Y46      -0.370000
      9 CAO         -2.9160    -2.0260     2.3910 cc         1 Y46      -0.012400
     10 NAP         -2.6880    -1.3800     3.5840 nz         1 Y46      -0.660400
     11 CAM         -2.9160    -2.0100     0.0280 c          1 Y46       0.820500
     12 OAL         -2.7120    -1.4220    -1.0170 o          1 Y46      -0.591500
     13 NAD         -3.3630    -3.2780    -0.0010 ns         1 Y46      -0.533500
     14 CAE         -3.5960    -3.9500     1.1430 c          1 Y46       0.689700
     15 OAA         -4.0020    -5.0990     1.1080 o          1 Y46      -0.540500
     16 CAF         -3.3720    -3.3160     2.3790 cd         1 Y46       0.105800
     17 NAG         -3.6150    -4.0010     3.5920 nu         1 Y46      -0.738900
     18 SAH         -4.3090    -5.5050     3.5690 sy         1 Y46       1.402200
     19 OAC         -4.3910    -5.9290     4.9220 o          1 Y46      -0.589300
     20 OAQ         -5.4390    -5.4120     2.7130 o          1 Y46      -0.589300
     21 CAI         -3.1720    -6.5910     2.7750 ca         1 Y46      -0.308500
     22 CAJ         -1.9040    -6.7670     3.2960 ca         1 Y46      -0.018500
     23 CAK         -1.0110    -7.6200     2.6730 ca         1 Y46      -0.147000
     24 CAT         -1.3870    -8.2960     1.5280 ca         1 Y46      -0.058000
     25 CAS         -2.6560    -8.1220     1.0060 ca         1 Y46      -0.147000
     26 CAR         -3.5490    -7.2730     1.6320 ca         1 Y46      -0.018500
     27 HAW         -0.5410     0.0470    -0.9370 ha         1 Y46       0.120500
     28 HAX          1.9240     0.0160    -0.9380 ha         1 Y46       0.151500
     29 HBA          3.1560     0.0010     1.1970 ha         1 Y46       0.155000
     30 HAZ          1.9230    -0.0020     3.3320 ha         1 Y46       0.151500
     31 HAY         -0.5410     0.0610     3.3300 ha         1 Y46       0.120500
     32 HAU1        -2.5580     0.5100     0.3100 h1         1 Y46       0.080700
     33 HAU2        -2.5600     0.5120     2.0790 h1         1 Y46       0.080700
     34 HAP1        -3.4040    -1.6260     4.2390 hn         1 Y46       0.469133
     35 HAP2        -1.7960    -1.6530     3.9470 hn         1 Y46       0.469133
     36 HAD         -3.5260    -3.7260    -0.8810 hn         1 Y46       0.400500
     37 HAG         -3.3910    -3.5670     4.4650 hn         1 Y46       0.443800
     38 HAJ         -1.6100    -6.2370     4.1940 ha         1 Y46       0.147500
     39 HAR         -4.5430    -7.1370     1.2230 ha         1 Y46       0.147500
     40 HAK         -0.0170    -7.7570     3.0820 ha         1 Y46       0.147500
     41 HAT         -0.6880    -8.9630     1.0380 ha         1 Y46       0.147000
     42 HAS         -2.9510    -8.6540     0.1100 ha         1 Y46       0.147500
     43 HAP3        -2.6960    -0.3900     3.4340 hn         1 Y46       0.469133
@<TRIPOS>BOND
     1     1     2 ar
     2     1     6 ar
     3     2     3 ar
     4     3     4 ar
     5     4     5 ar
     6     5     6 ar
     7     6     7 1
     8     7     8 1
     9     8     9 1
    10     8    11 1
    11     9    10 1
    12     9    16 2
    13    11    12 2
    14    11    13 1
    15    13    14 1
    16    14    15 2
    17    14    16 1
    18    16    17 1
    19    17    18 1
    20    18    20 2
    21    18    19 2
    22    18    21 1
    23    21    22 ar
    24    21    26 ar
    25    22    23 ar
    26    23    24 ar
    27    24    25 ar
    28    25    26 ar
    29     1    27 1
    30     2    28 1
    31     3    29 1
    32     4    30 1
    33     5    31 1
    34     7    32 1
    35     7    33 1
    36    10    34 1
    37    10    35 1
    38    13    36 1
    39    17    37 1
    40    22    38 1
    41    26    39 1
    42    23    40 1
    43    24    41 1
    44    25    42 1
    45    43    10 1
@<TRIPOS>SUBSTRUCTURE
     1 Y46         1 TEMP              0 ****  ****    0 ROOT
