@<TRIPOS>MOLECULE
Y46
   43    45     1     0     0
SMALL
bcc


@<TRIPOS>ATOM
      1 CAW          0.0000     0.0000     0.0000 ca         1 Y46      -0.090500
      2 CAX          1.3820     0.0000     0.0000 ca         1 Y46      -0.076500
      3 CBA          2.0730     0.0000     1.1970 ca         1 Y46      -0.061000
      4 CAZ          1.3820     0.0010     2.3940 ca         1 Y46      -0.076500
      5 CAY         -0.0000     0.0020     2.3940 ca         1 Y46      -0.090500
      6 CAV         -0.6910    -0.0000     1.1970 ca         1 Y46      -0.170300
      7 CAU         -2.1980     0.0010     1.1960 c3         1 Y46       0.092300
      8 NAN         -2.6870    -1.3810     1.1970 n          1 Y46       0.047000
      9 CAO         -2.9160    -2.0260     2.3910 cc         1 Y46      -0.434400
     10 NAP         -2.6880    -1.3800     3.5840 nz         1 Y46       0.278600
     11 CAM         -2.9160    -2.0100     0.0280 c          1 Y46       0.594500
     12 OAL         -2.7120    -1.4220    -1.0170 o          1 Y46      -0.643500
     13 NAD         -3.3630    -3.2780    -0.0010 ns         1 Y46      -0.086500
     14 CAE         -3.5960    -3.9500     1.1430 c          1 Y46       0.573700
     15 OAA         -4.0020    -5.0990     1.1080 o          1 Y46      -0.573500
     16 CAF         -3.3720    -3.3160     2.3790 cd         1 Y46       0.072800
     17 NAG         -3.6150    -4.0010     3.5920 nu         1 Y46      -0.366900
     18 SAH         -4.3090    -5.5050     3.5690 sy         1 Y46       1.036200
     19 OAC         -4.3910    -5.9290     4.9220 o          1 Y46      -0.534300
     20 OAQ         -5.4390    -5.4120     2.7130 o          1 Y46      -0.534300
     21 CAI         -3.1720    -6.5910     2.7750 ca         1 Y46      -0.157500
     22 CAJ         -1.9040    -6.7670     3.2960 ca         1 Y46       0.011000
     23 CAK         -1.0110    -7.6200     2.6730 ca         1 Y46      -0.125000
     24 CAT         -1.3870    -8.2960     1.5280 ca         1 Y46      -0.026000
     25 CAS         -2.6560    -8.1220     1.0060 ca         1 Y46      -0.125000
     26 CAR         -3.5490    -7.2730     1.6320 ca         1 Y46       0.011000
     27 HAW         -0.5410     0.0470    -0.9370 ha         1 Y46       0.097500
     28 HAX          1.9240     0.0160    -0.9380 ha         1 Y46       0.118500
     29 HBA          3.1560     0.0010     1.1970 ha         1 Y46       0.121000
     30 HAZ          1.9230    -0.0020     3.3320 ha         1 Y46       0.118500
     31 HAY         -0.5410     0.0610     3.3300 ha         1 Y46       0.097500
     32 HAU1        -2.5580     0.5100     0.3100 h1         1 Y46       0.049700
     33 HAU2        -2.5600     0.5120     2.0790 h1         1 Y46       0.049700
     34 HAP1        -3.4040    -1.6260     4.2390 hn         1 Y46       0.218133
     35 HAP2        -1.7960    -1.6530     3.9470 hn         1 Y46       0.218133
     36 HAD         -3.5260    -3.7260    -0.8810 hn         1 Y46       0.231500
     37 HAG         -3.3910    -3.5670     4.4650 hn         1 Y46       0.324800
     38 HAJ         -1.6100    -6.2370     4.1940 ha         1 Y46       0.121000
     39 HAR         -4.5430    -7.1370     1.2230 ha         1 Y46       0.121000
     40 HAK         -0.0170    -7.7570     3.0820 ha         1 Y46       0.118500
     41 HAT         -0.6880    -8.9630     1.0380 ha         1 Y46       0.113000
     42 HAS         -2.9510    -8.6540     0.1100 ha         1 Y46       0.118500
     43 HAP3        -2.6960    -0.3900     3.4340 hn         1 Y46       0.218133
@<TRIPOS>BOND
     1     1     2 ar  
     2     1     6 ar  
     3     1    27 1   
     4     2     3 ar  
     5     2    28 1   
     6     3     4 ar  
     7     3    29 1   
     8     4     5 ar  
     9     4    30 1   
    10     5     6 ar  
    11     5    31 1   
    12     6     7 1   
    13     7     8 1   
    14     7    32 1   
    15     7    33 1   
    16     8     9 1   
    17     8    11 1   
    18     9    10 1   
    19     9    16 2   
    20    10    34 1   
    21    10    35 1   
    22    10    43 1   
    23    11    12 2   
    24    11    13 1   
    25    13    14 1   
    26    13    36 1   
    27    14    15 2   
    28    14    16 1   
    29    16    17 1   
    30    17    18 1   
    31    17    37 1   
    32    18    19 2   
    33    18    20 2   
    34    18    21 1   
    35    21    22 ar  
    36    21    26 ar  
    37    22    23 ar  
    38    22    38 1   
    39    23    24 ar  
    40    23    40 1   
    41    24    25 ar  
    42    24    41 1   
    43    25    26 ar  
    44    25    42 1   
    45    26    39 1   
@<TRIPOS>SUBSTRUCTURE
     1 Y46         1 TEMP              0 ****  ****    0 ROOT
