@<TRIPOS>MOLECULE
molecule
   25    25     1     0     0
SMALL
bcc


@<TRIPOS>ATOM
      1 Cl           0.0000     0.0000     0.0000 cl         1 Y4L      -0.107400
      2 C5           1.7360     0.0000     0.0000 ca         1 Y4L       0.015400
      3 C4           2.4270     0.0000     1.2000 ca         1 Y4L      -0.106000
      4 C3           3.8080    -0.0010     1.2020 ca         1 Y4L      -0.148000
      5 C6           2.4260    -0.0060    -1.1980 ca         1 Y4L      -0.106000
      6 C7           3.8080    -0.0070    -1.2020 ca         1 Y4L      -0.148000
      7 C2           4.5030    -0.0010    -0.0000 ca         1 Y4L       0.140600
      8 N1           5.9010    -0.0010     0.0010 nu         1 Y4L      -0.783500
      9 S            6.7290    -1.0370    -0.9920 s6         1 Y4L       1.546800
     10 O            6.2070    -0.8440    -2.2990 o          1 Y4L      -0.643300
     11 O1           8.1050    -0.8820    -0.6750 o          1 Y4L      -0.643300
     12 N            6.3160    -2.5780    -0.5460 n3         1 Y4L      -0.828500
     13 C1           5.2500    -3.2850    -1.2580 c3         1 Y4L       0.226100
     14 C            7.0180    -3.2320     0.5610 c3         1 Y4L       0.226100
     15 H4           1.8840     0.0000     2.1370 ha         1 Y4L       0.149000
     16 H6           1.8830    -0.0110    -2.1360 ha         1 Y4L       0.149000
     17 H3           4.3480     0.0020     2.1410 ha         1 Y4L       0.162500
     18 H7           4.3480    -0.0100    -2.1410 ha         1 Y4L       0.162500
     19 H1           6.4010     0.6510     0.5720 hn         1 Y4L       0.464800
     20 H11C         4.9900    -2.7370    -2.1560 h1         1 Y4L       0.044700
     21 H12C         4.3790    -3.3630    -0.6190 h1         1 Y4L       0.044700
     22 H13C         5.5910    -4.2770    -1.5260 h1         1 Y4L       0.044700
     23 HC1          7.3370    -2.4860     1.2790 h1         1 Y4L       0.044700
     24 HC2          6.3520    -3.9370     1.0450 h1         1 Y4L       0.044700
     25 HC3          7.8850    -3.7590     0.1790 h1         1 Y4L       0.044700
@<TRIPOS>BOND
     1     1     2 1
     2     2     3 ar
     3     2     5 ar
     4     3     4 ar
     5     4     7 ar
     6     5     6 ar
     7     6     7 ar
     8     7     8 1
     9     8     9 1
    10     9    10 2
    11     9    11 2
    12     9    12 1
    13    12    13 1
    14    12    14 1
    15     3    15 1
    16     5    16 1
    17     4    17 1
    18     6    18 1
    19     8    19 1
    20    13    20 1
    21    13    21 1
    22    13    22 1
    23    14    23 1
    24    14    24 1
    25    14    25 1
@<TRIPOS>SUBSTRUCTURE
     1 Y4L         1 TEMP              0 ****  ****    0 ROOT
