@<TRIPOS>MOLECULE
Y50
   50    54     1     0     0
SMALL
bcc


@<TRIPOS>ATOM
      1 C1           0.0000     0.0000     0.0000 c3         1 Y50       0.059000
      2 O2           1.4290     0.0000     0.0000 os         1 Y50      -0.199000
      3 C3           2.0450     0.0000     1.2110 c2         1 Y50      -0.002000
      4 C4           1.2870    -0.0060     2.3730 c2         1 Y50      -0.132000
      5 C5           1.9070    -0.0110     3.6040 c2         1 Y50      -0.174000
      6 C6           3.3040    -0.0110     3.6850 c3         1 Y50       0.008000
      7 C7           3.9660    -0.0170     4.9960 c2         1 Y50      -0.017000
      8 C8           3.2260    -0.0220     6.1270 c2         1 Y50      -0.145000
      9 C9           3.8850    -0.0290     7.4320 c3         1 Y50       0.451000
     10 O10          5.1010    -0.0290     7.5010 o          1 Y50      -0.375000
     11 C11          3.0770    -0.0350     8.6660 ca         1 Y50      -0.260000
     12 C12          1.6790    -0.0410     8.5920 ca         1 Y50       0.024000
     13 C13          0.9200    -0.0520     9.7400 ca         1 Y50      -0.266000
     14 C14          1.5320    -0.0580    10.9900 ca         1 Y50       0.182000
     15 O15          0.7770    -0.0690    12.1170 os         1 Y50      -0.185000
     16 C16         -0.6420    -0.0750    11.9480 c3         1 Y50       0.054000
     17 C17          2.9240    -0.0520    11.0800 ca         1 Y50      -0.192000
     18 C18          3.6140    -0.0570    12.3870 c2         1 Y50      -0.047000
     19 C19          4.9020     0.2790    12.4170 c2         1 Y50      -0.202000
     20 C20          5.6100     0.6630    11.1440 c3         1 Y50       0.131000
     21 C21          7.0940     0.3160    11.2670 c3         1 Y50      -0.129500
     22 C22          5.4610     2.1700    10.9200 c3         1 Y50      -0.129500
     23 O23          5.0520    -0.0360    10.0300 os         1 Y50      -0.144000
     24 C24          3.7020    -0.0400     9.9160 ca         1 Y50       0.222000
     25 C25          4.0690    -0.0060     2.5120 c2         1 Y50      -0.215000
     26 C26          3.4400    -0.0000     1.2810 c2         1 Y50      -0.021000
     27 N27          4.2000    -0.0010     0.1070 n8         1 Y50       0.053000
     28 H1          -0.3610    -0.8860     0.5090 h1         1 Y50       0.035000
     29 H2          -0.3610     0.0020    -1.0210 h1         1 Y50       0.035000
     30 H3          -0.3610     0.8830     0.5130 h1         1 Y50       0.035000
     31 H4           0.2050    -0.0060     2.3120 ha         1 Y50       0.118000
     32 H5           1.3120    -0.0150     4.5100 ha         1 Y50       0.120000
     33 H6           3.5260     0.8600     4.5370 DU         1 Y50       0.106000
     34 H7           3.6660     0.8500     6.5940 DU         1 Y50       0.025000
     35 H8           1.1910    -0.0370     7.6250 ha         1 Y50       0.112000
     36 H9          -0.1610    -0.0570     9.6700 ha         1 Y50       0.126000
     37 H10         -0.9360    -0.9570    11.3920 h1         1 Y50       0.039333
     38 H11         -1.1210    -0.0840    12.9190 h1         1 Y50       0.039333
     39 H12         -0.9440     0.8120    11.4050 h1         1 Y50       0.039333
     40 H13          3.0900    -0.3360    13.2930 ha         1 Y50       0.117000
     41 H14          5.4360     0.2980    13.3600 ha         1 Y50       0.115000
     42 H15          7.6160     0.6380    10.3740 hc         1 Y50       0.055000
     43 H16          7.2060    -0.7550    11.3830 hc         1 Y50       0.055000
     44 H17          7.5130     0.8180    12.1300 hc         1 Y50       0.055000
     45 H18          5.9540     2.7050    11.7220 hc         1 Y50       0.055000
     46 H19          4.4100     2.4300    10.9050 hc         1 Y50       0.055000
     47 H20          5.9140     2.4400     9.9740 hc         1 Y50       0.055000
     48 H21          5.1510    -0.0060     2.5690 ha         1 Y50       0.125000
     49 H22          3.7450    -0.0060    -0.7840 hn         1 Y50       0.065500
     50 H23          5.2000     0.0060     0.1580 hn         1 Y50       0.065500
@<TRIPOS>BOND
     1     1     2 1   
     2     1    28 1   
     3     1    29 1   
     4     1    30 1   
     5     2     3 1   
     6     3     4 1   
     7     3    26 1   
     8     4     5 1   
     9     4    31 1   
    10     5     6 1   
    11     5    32 1   
    12     6     7 1   
    13     6    25 1   
    14     6    33 1   
    15     7     8 1   
    16     7    33 1   
    17     8     9 1   
    18     8    34 1   
    19     9    10 1   
    20     9    11 1   
    21     9    34 1   
    22    11    12 1   
    23    11    24 1   
    24    12    13 1   
    25    12    35 1   
    26    13    14 1   
    27    13    36 1   
    28    14    15 1   
    29    14    17 1   
    30    15    16 1   
    31    16    37 1   
    32    16    38 1   
    33    16    39 1   
    34    17    18 1   
    35    17    24 1   
    36    18    19 1   
    37    18    40 1   
    38    19    20 1   
    39    19    41 1   
    40    20    21 1   
    41    20    22 1   
    42    20    23 1   
    43    21    42 1   
    44    21    43 1   
    45    21    44 1   
    46    22    45 1   
    47    22    46 1   
    48    22    47 1   
    49    23    24 1   
    50    25    26 1   
    51    25    48 1   
    52    26    27 1   
    53    27    49 1   
    54    27    50 1   
@<TRIPOS>SUBSTRUCTURE
     1 Y50         1 TEMP              0 ****  ****    0 ROOT
