@<TRIPOS>MOLECULE
molecule
   50    52     1     0     0
SMALL
bcc


@<TRIPOS>ATOM
      1 C1           0.0000     0.0000     0.0000 c3         1 Y50       0.124700
      2 O2           1.4290     0.0000     0.0000 os         1 Y50      -0.313900
      3 C3           2.0450     0.0000     1.2110 ca         1 Y50       0.138100
      4 C4           1.2870    -0.0060     2.3730 ca         1 Y50      -0.225000
      5 C5           1.9070    -0.0110     3.6040 ca         1 Y50      -0.077000
      6 C6           3.3040    -0.0110     3.6850 ca         1 Y50      -0.118800
      7 C7           3.9660    -0.0170     4.9960 ce         1 Y50      -0.016200
      8 C8           3.2260    -0.0220     6.1270 cf         1 Y50      -0.277200
      9 C9           3.8850    -0.0290     7.4320 c          1 Y50       0.583900
     10 O10          5.1010    -0.0290     7.5010 o          1 Y50      -0.526100
     11 C11          3.0770    -0.0350     8.6660 ca         1 Y50      -0.232600
     12 C12          1.6790    -0.0410     8.5920 ca         1 Y50      -0.023000
     13 C13          0.9200    -0.0520     9.7400 ca         1 Y50      -0.268000
     14 C14          1.5320    -0.0580    10.9900 ca         1 Y50       0.206100
     15 O15          0.7770    -0.0690    12.1170 os         1 Y50      -0.321900
     16 C16         -0.6420    -0.0750    11.9480 c3         1 Y50       0.127700
     17 C17          2.9240    -0.0520    11.0800 ca         1 Y50      -0.183800
     18 C18          3.6140    -0.0570    12.3870 ce         1 Y50      -0.073200
     19 C19          4.9020     0.2790    12.4170 c2         1 Y50      -0.218200
     20 C20          5.6100     0.6630    11.1440 c3         1 Y50       0.191000
     21 C21          7.0940     0.3160    11.2670 c3         1 Y50      -0.095100
     22 C22          5.4610     2.1700    10.9200 c3         1 Y50      -0.095100
     23 O23          5.0520    -0.0360    10.0300 os         1 Y50      -0.282900
     24 C24          3.7020    -0.0400     9.9160 ca         1 Y50       0.240100
     25 C25          4.0690    -0.0060     2.5120 ca         1 Y50      -0.085000
     26 C26          3.4400    -0.0000     1.2810 ca         1 Y50       0.131600
     27 N27          4.2000    -0.0010     0.1070 nv         1 Y50      -0.975200
     28 H1          -0.3610    -0.8860     0.5090 h1         1 Y50       0.041367
     29 H2          -0.3610     0.8830     0.5130 h1         1 Y50       0.041367
     30 H3          -0.3610     0.0020    -1.0210 h1         1 Y50       0.041367
     31 H4           0.2050    -0.0060     2.3120 ha         1 Y50       0.136000
     32 H5           1.3120    -0.0150     4.5100 ha         1 Y50       0.133000
     33 H6           5.0480    -0.0170     5.0570 ha         1 Y50       0.154000
     34 H7           2.1440    -0.0220     6.0660 ha         1 Y50       0.129000
     35 H8           1.1910    -0.0370     7.6250 ha         1 Y50       0.137000
     36 H9          -0.1610    -0.0570     9.6700 ha         1 Y50       0.137000
     37 H10         -0.9440     0.8120    11.4050 h1         1 Y50       0.044367
     38 H11         -1.1210    -0.0840    12.9190 h1         1 Y50       0.044367
     39 H12         -0.9360    -0.9570    11.3920 h1         1 Y50       0.044367
     40 H13          3.0900    -0.3360    13.2930 ha         1 Y50       0.147000
     41 H14          5.4440     0.2670    13.3550 ha         1 Y50       0.138000
     42 H15          7.5150     0.8280    12.1240 hc         1 Y50       0.048700
     43 H16          7.6140     0.6280    10.3690 hc         1 Y50       0.048700
     44 H17          7.2050    -0.7540    11.3950 hc         1 Y50       0.048700
     45 H18          5.9130     2.4400     9.9730 hc         1 Y50       0.048700
     46 H19          4.4100     2.4300    10.9060 hc         1 Y50       0.048700
     47 H20          5.9550     2.7050    11.7220 hc         1 Y50       0.048700
     48 H21          5.1510    -0.0060     2.5690 ha         1 Y50       0.146000
     49 H22          4.4840    -0.8670    -0.3050 hn         1 Y50       0.428800
     50 H23          4.4870     0.8660    -0.3040 hn         1 Y50       0.428800
@<TRIPOS>BOND
     1    16    15 1
     2    15    14 1
     3    13    14 ar
     4    13    12 ar
     5    14    17 ar
     6    12    11 ar
     7    17    18 1
     8    17    24 ar
     9    18    19 2
    10    11    24 ar
    11    11     9 1
    12    24    23 1
    13    19    20 1
    14    10     9 2
    15    22    20 1
    16    20    23 1
    17    20    21 1
    18     9     8 1
    19     8     7 2
    20     7     6 1
    21     5     6 ar
    22     5     4 ar
    23     6    25 ar
    24     4     3 ar
    25    25    26 ar
    26     3    26 ar
    27     3     2 1
    28    26    27 1
    29     2     1 1
    30     1    28 1
    31     1    29 1
    32     1    30 1
    33     4    31 1
    34     5    32 1
    35     7    33 1
    36     8    34 1
    37    12    35 1
    38    13    36 1
    39    16    37 1
    40    16    38 1
    41    16    39 1
    42    18    40 1
    43    19    41 1
    44    21    42 1
    45    21    43 1
    46    21    44 1
    47    22    45 1
    48    22    46 1
    49    22    47 1
    50    25    48 1
    51    27    49 1
    52    27    50 1
@<TRIPOS>SUBSTRUCTURE
     1 Y50         1 TEMP              0 ****  ****    0 ROOT
