@<TRIPOS>MOLECULE
molecule
   46    48     1     0     0
SMALL
bcc


@<TRIPOS>ATOM
      1 C1           0.0000     0.0000     0.0000 c3         1 Y52       0.139700
      2 O2           1.4520     0.0000     0.0000 os         1 Y52      -0.417900
      3 C3           2.0650     0.0000     1.2020 c          1 Y52       0.668300
      4 O4           1.4030     0.0010     2.2220 o          1 Y52      -0.575000
      5 C5           3.5290     0.0010     1.2780 ce         1 Y52      -0.234400
      6 C6           4.1450     0.0000     2.4860 c2         1 Y52       0.143100
      7 O7           5.4900     0.0000     2.5570 os         1 Y52      -0.304900
      8 C8           6.0810    -0.0000     3.8830 c3         1 Y52       0.127700
      9 C9           4.3360    -0.0000     0.0340 ca         1 Y52       0.000200
     10 C10          4.4510    -1.1630    -0.7260 ca         1 Y52      -0.105000
     11 C11          5.2030    -1.1570    -1.8830 ca         1 Y52      -0.120000
     12 C12          5.8430     0.0000    -2.2890 ca         1 Y52      -0.129000
     13 C13          5.7330     1.1570    -1.5380 ca         1 Y52      -0.111000
     14 C14          4.9790     1.1650    -0.3830 ca         1 Y52      -0.068300
     15 C15          4.8540     2.4280     0.4300 c3         1 Y52       0.024000
     16 S16          6.1860     2.4920     1.6530 ss         1 Y52      -0.109300
     17 C17          5.8080     4.0230     2.4370 cc         1 Y52       0.434100
     18 S18          4.4590     5.0650     2.0070 ss         1 Y52      -0.157100
     19 C19          4.9280     6.2130     3.2590 ca         1 Y52      -0.080100
     20 C20          4.3640     7.4260     3.6470 ca         1 Y52      -0.048000
     21 C21          4.9230     8.1550     4.6730 ca         1 Y52      -0.207000
     22 C22          6.0560     7.6800     5.3250 ca         1 Y52       0.144100
     23 O23          6.6050     8.4030     6.3380 os         1 Y52      -0.325900
     24 C24          5.9650     9.6350     6.6750 c3         1 Y52       0.128700
     25 C25          6.6250     6.4840     4.9530 ca         1 Y52      -0.121000
     26 C26          6.0670     5.7220     3.9040 ca         1 Y52       0.167400
     27 N27          6.4790     4.5380     3.4120 nd         1 Y52      -0.574100
     28 H1          -0.3610     0.8790     0.5200 h1         1 Y52       0.048033
     29 H2          -0.3610     0.0100    -1.0210 h1         1 Y52       0.048033
     30 H3          -0.3610    -0.8900     0.5020 h1         1 Y52       0.048033
     31 H4           3.5550    -0.0000     3.3950 h4         1 Y52       0.156000
     32 H5           7.1560     0.1050     3.8000 h1         1 Y52       0.051033
     33 H6           5.8480    -0.9330     4.3830 h1         1 Y52       0.051033
     34 H7           5.6820     0.8270     4.4580 h1         1 Y52       0.051033
     35 H8           3.9500    -2.0700    -0.4100 ha         1 Y52       0.137000
     36 H9           5.2920    -2.0600    -2.4740 ha         1 Y52       0.131000
     37 H10          6.4350    -0.0010    -3.1960 ha         1 Y52       0.131000
     38 H11          6.2350     2.0610    -1.8620 ha         1 Y52       0.134000
     39 H12          3.8970     2.4380     0.9370 h1         1 Y52       0.079200
     40 H13          4.9240     3.2870    -0.2260 h1         1 Y52       0.079200
     41 H14          3.4810     7.7960     3.1400 ha         1 Y52       0.137000
     42 H15          4.5030     9.1160     4.9460 ha         1 Y52       0.141000
     43 H16          5.9800    10.2960     5.8170 h1         1 Y52       0.042367
     44 H17          6.4920    10.1020     7.4990 h1         1 Y52       0.042367
     45 H18          4.9400     9.4430     6.9660 h1         1 Y52       0.042367
     46 H19          7.5080     6.1240     5.4690 ha         1 Y52       0.160000
@<TRIPOS>BOND
     1     1     2 1
     2     4     3 2
     3     2     3 1
     4     3     5 1
     5    11    10 ar
     6    11    12 ar
     7    10     9 ar
     8    12    13 ar
     9     9     5 1
    10     9    14 ar
    11     5     6 2
    12    13    14 ar
    13    14    15 1
    14     6     7 1
    15    16    15 1
    16    16    17 1
    17    17    18 1
    18    17    27 2
    19     7     8 1
    20    18    19 1
    21    27    26 1
    22    19    26 ar
    23    19    20 ar
    24    26    25 ar
    25    20    21 ar
    26    25    22 ar
    27    21    22 ar
    28    22    23 1
    29    23    24 1
    30     1    28 1
    31     1    29 1
    32     1    30 1
    33     6    31 1
    34     8    32 1
    35     8    33 1
    36     8    34 1
    37    10    35 1
    38    11    36 1
    39    12    37 1
    40    13    38 1
    41    15    39 1
    42    15    40 1
    43    20    41 1
    44    21    42 1
    45    24    43 1
    46    24    44 1
    47    24    45 1
    48    25    46 1
@<TRIPOS>SUBSTRUCTURE
     1 Y52         1 TEMP              0 ****  ****    0 ROOT
