@<TRIPOS>MOLECULE
Y5H
   59    63     1     0     0
SMALL
bcc


@<TRIPOS>ATOM
      1 CL1        -0.1320    0.4240   -1.2470 cl        1 Y5H     -0.013400
      2 C25         1.4730    0.0840   -0.9340 cc        1 Y5H     -0.040700
      3 C24         1.9680   -0.3750    0.2780 cd        1 Y5H     -0.152000
      4 C22         3.3750   -0.5720    0.2240 cd        1 Y5H     -0.103000
      5 S1          2.6880    0.2780   -2.0740 ss        1 Y5H      0.112200
      6 C20         3.8870   -0.2570   -1.0290 cc        1 Y5H     -0.189600
      7 C17         5.2660   -0.3460   -1.4050 cc        1 Y5H      0.579900
      8 N16         5.8500   -0.3270   -2.6100 nd        1 Y5H     -0.674000
      9 O10         6.2110   -0.4650   -0.3610 os        1 Y5H     -0.358800
     10 C9          7.4480   -0.5080   -0.9940 cc        1 Y5H      0.183300
     11 C4          7.2320   -0.4250   -2.3670 cd        1 Y5H      0.233300
     12 C1          8.2860   -0.3640   -3.4270 c3        1 Y5H      0.178200
     13 N3          8.3110    0.9740   -4.0410 n3        1 Y5H     -0.692600
     14 C7          7.9690    0.8690   -5.4760 c3        1 Y5H      0.177500
     15 C14         9.0590    1.5740   -6.3060 c3        1 Y5H     -0.090400
     16 C15        10.1050    2.0590   -5.3110 c3        1 Y5H     -0.098400
     17 C8          9.5730    1.7050   -3.9140 c3        1 Y5H      0.149800
     18 C5          7.8040   -0.6180   -5.8410 c3        1 Y5H     -0.148700
     19 C2          8.0810   -1.4210   -4.5450 c3        1 Y5H     -0.150700
     20 C6          6.8560   -2.3090   -4.3640 c         1 Y5H      0.735500
     21 O13         6.7040   -3.2280   -3.5520 o         1 Y5H     -0.606500
     22 C11         6.3690   -0.9670   -6.2220 c         1 Y5H      0.718500
     23 O18         5.6960   -0.4960   -7.1410 o         1 Y5H     -0.570500
     24 N12         5.8990   -1.9890   -5.3570 n         1 Y5H     -0.518400
     25 C19         4.5320   -2.4120   -5.3010 c3        1 Y5H      0.112000
     26 C21         4.3640   -3.9340   -5.4490 c3        1 Y5H     -0.132400
     27 C23         2.9050   -4.2790   -5.1970 c3        1 Y5H      0.118800
     28 N29         2.6260   -5.7510   -5.0030 n4        1 Y5H     -0.602800
     29 C32         1.1450   -5.9550   -5.0050 c3        1 Y5H      0.088100
     30 C31         3.2320   -6.5450   -6.1110 c3        1 Y5H      0.088100
     31 C30         3.1780   -6.2140   -3.6960 c3        1 Y5H      0.088100
     32 H24         1.3670   -0.5590    1.1730 ha        1 Y5H      0.176000
     33 H22         3.9760   -0.9200    1.0690 ha        1 Y5H      0.176000
     34 H9          8.3060   -0.6000   -0.3370 h4        1 Y5H      0.075100
     35 H1          9.2680   -0.5940   -2.9100 h1        1 Y5H      0.068700
     36 H7          6.9850    1.4010   -5.6160 h1        1 Y5H      0.097700
     37 H82        10.3490    1.1370   -3.3330 h1        1 Y5H      0.056700
     38 H81         9.3350    2.6430   -3.3400 h1        1 Y5H      0.056700
     39 H5          8.4800   -0.9210   -6.6790 hc        1 Y5H      0.105700
     40 H2          8.9890   -2.0670   -4.6320 hc        1 Y5H      0.102700
     41 H141        8.6080    2.4330   -6.8620 hc        1 Y5H      0.059200
     42 H142        9.5110    0.8860   -7.0610 hc        1 Y5H      0.059200
     43 H151       11.0900    1.5620   -5.4920 hc        1 Y5H      0.058200
     44 H152       10.2610    3.1620   -5.3990 hc        1 Y5H      0.058200
     45 H191        4.0950   -2.0990   -4.3080 h1        1 Y5H      0.074200
     46 H192        3.9660   -1.8910   -6.1270 h1        1 Y5H      0.074200
     47 H211        5.0410   -4.4450   -4.7120 hc        1 Y5H      0.080700
     48 H212        4.6670   -4.2510   -6.4810 hc        1 Y5H      0.080700
     49 H231        2.2840   -3.9330   -6.0730 hx        1 Y5H      0.099200
     50 H232        2.5400   -3.7530   -4.2670 hx        1 Y5H      0.099200
     51 H321        0.7290   -5.6650   -6.0060 hx        1 Y5H      0.102367
     52 H322        0.9190   -7.0370   -4.8060 hx        1 Y5H      0.102367
     53 H323        0.6810   -5.3210   -4.2050 hx        1 Y5H      0.102367
     54 H311        2.8860   -6.1330   -7.0960 hx        1 Y5H      0.102367
     55 H312        4.3520   -6.4800   -6.0480 hx        1 Y5H      0.102367
     56 H313        2.9150   -7.6170   -6.0160 hx        1 Y5H      0.102367
     57 H301        4.2890   -6.0550   -3.6730 hx        1 Y5H      0.102367
     58 H302        2.9540   -7.3070   -3.5670 hx        1 Y5H      0.102367
     59 H303        2.7020   -5.6310   -2.8630 hx        1 Y5H      0.102367
@<TRIPOS>BOND
     1    1    2 1   
     2    2    3 2   
     3    2    5 1   
     4    3    4 1   
     5    3   32 1   
     6    4    6 2   
     7    4   33 1   
     8    5    6 1   
     9    6    7 1   
    10    7    8 2   
    11    7    9 1   
    12    8   11 1   
    13    9   10 1   
    14   10   11 2   
    15   10   34 1   
    16   11   12 1   
    17   12   13 1   
    18   12   19 1   
    19   12   35 1   
    20   13   14 1   
    21   13   17 1   
    22   14   15 1   
    23   14   18 1   
    24   14   36 1   
    25   15   16 1   
    26   15   41 1   
    27   15   42 1   
    28   16   17 1   
    29   16   43 1   
    30   16   44 1   
    31   17   37 1   
    32   17   38 1   
    33   18   19 1   
    34   18   22 1   
    35   18   39 1   
    36   19   20 1   
    37   19   40 1   
    38   20   21 2   
    39   20   24 1   
    40   22   23 2   
    41   22   24 1   
    42   24   25 1   
    43   25   26 1   
    44   25   45 1   
    45   25   46 1   
    46   26   27 1   
    47   26   47 1   
    48   26   48 1   
    49   27   28 1   
    50   27   49 1   
    51   27   50 1   
    52   28   29 1   
    53   28   30 1   
    54   28   31 1   
    55   29   51 1   
    56   29   52 1   
    57   29   53 1   
    58   30   54 1   
    59   30   55 1   
    60   30   56 1   
    61   31   57 1   
    62   31   58 1   
    63   31   59 1   
@<TRIPOS>SUBSTRUCTURE
     1 Y5H         1 TEMP              0 ****  ****    0 ROOT
