@<TRIPOS>MOLECULE
Y69
   55    54     1     0     0
SMALL
bcc


@<TRIPOS>ATOM
      1 OAB         0.6290    1.2890   -0.9010 o         1 Y69     -0.528100
      2 CAC         1.5910    0.5430   -0.7200 c         1 Y69      0.564900
      3 CAE         2.4280    0.5780    0.5220 c3        1 Y69     -0.204400
      4 CAF         3.0660   -0.7630    0.8060 c3        1 Y69     -0.076400
      5 CAG         3.9290   -0.7030    2.0480 c3        1 Y69     -0.078400
      6 CAH         4.5680   -2.0440    2.3370 c3        1 Y69     -0.079400
      7 CAI         5.4310   -1.9840    3.5790 c3        1 Y69     -0.079400
      8 CAJ         6.0690   -3.3260    3.8690 c3        1 Y69     -0.079400
      9 CAK         6.9320   -3.2650    5.1110 c3        1 Y69     -0.078400
     10 CAL         7.5690   -4.6070    5.4020 c3        1 Y69     -0.078400
     11 CAM         8.4300   -4.5430    6.6440 c3        1 Y69     -0.083400
     12 CAN         9.0600   -5.8960    6.9230 c3        1 Y69      0.132400
     13 OAT         9.8460   -5.7440    8.1040 os        1 Y69     -0.427600
     14 CAP        10.5100   -6.9520    8.4690 c3        1 Y69      0.126400
     15 CAR        11.1710   -6.6910    9.8180 c3        1 Y69      0.127400
     16 OAU        10.4610   -7.4750   10.7750 os        1 Y69     -0.429600
     17 CAQ        10.8750   -7.2000   12.1120 c3        1 Y69      0.127400
     18 CAO        10.1750   -8.2250   12.9990 c3        1 Y69      0.126400
     19 OAS        11.1910   -9.0930   13.4940 os        1 Y69     -0.428600
     20 CAD        10.6540  -10.1900   14.2320 c3        1 Y69      0.131400
     21 CAA        11.8270  -11.0120   14.7120 c3        1 Y69     -0.097100
     22 H1          1.9010   -0.2020   -1.4880 h4        1 Y69     -0.006800
     23 H2          1.8010    0.9020    1.3950 hc        1 Y69      0.074700
     24 H3          3.2230    1.3590    0.3790 hc        1 Y69      0.074700
     25 H4          2.2680   -1.5400    0.9410 hc        1 Y69      0.043700
     26 H5          3.6920   -1.0790   -0.0710 hc        1 Y69      0.043700
     27 H6          4.7280    0.0740    1.9140 hc        1 Y69      0.042700
     28 H7          3.3040   -0.3870    2.9250 hc        1 Y69      0.042700
     29 H8          5.1920   -2.3610    1.4600 hc        1 Y69      0.040700
     30 H9          3.7690   -2.8200    2.4710 hc        1 Y69      0.040700
     31 H10         4.8070   -1.6670    4.4560 hc        1 Y69      0.041200
     32 H11         6.2310   -1.2080    3.4440 hc        1 Y69      0.041200
     33 H12         6.6930   -3.6430    2.9920 hc        1 Y69      0.040200
     34 H13         5.2700   -4.1010    4.0040 hc        1 Y69      0.040200
     35 H14         7.7330   -2.4910    4.9760 hc        1 Y69      0.042200
     36 H15         6.3090   -2.9470    5.9880 hc        1 Y69      0.042200
     37 H16         8.1930   -4.9250    4.5250 hc        1 Y69      0.040200
     38 H17         6.7690   -5.3820    5.5370 hc        1 Y69      0.040200
     39 H18         9.2380   -3.7760    6.5160 hc        1 Y69      0.054700
     40 H19         7.8150   -4.2320    7.5270 hc        1 Y69      0.054700
     41 H20         8.2740   -6.6790    7.0920 h1        1 Y69      0.025700
     42 H21         9.7190   -6.2170    6.0720 h1        1 Y69      0.025700
     43 H22        11.2830   -7.1960    7.6930 h1        1 Y69      0.042200
     44 H23         9.7720   -7.7950    8.5430 h1        1 Y69      0.042200
     45 H24        11.1120   -5.6030   10.0870 h1        1 Y69      0.043700
     46 H25        12.2450   -7.0160    9.8000 h1        1 Y69      0.043700
     47 H26        10.5600   -6.1600   12.3870 h1        1 Y69      0.043200
     48 H27        11.9900   -7.2930   12.2000 h1        1 Y69      0.043200
     49 H28         9.6710   -7.7160   13.8630 h1        1 Y69      0.041700
     50 H29         9.4160   -8.8080   12.4120 h1        1 Y69      0.041700
     51 H30         9.9810  -10.7940   13.5660 h1        1 Y69      0.024700
     52 H31        10.0520   -9.8000   15.0960 h1        1 Y69      0.024700
     53 H32        12.4930  -10.3970   15.3630 hc        1 Y69      0.045033
     54 H33        11.4510  -11.8870   15.2930 hc        1 Y69      0.045033
     55 H34        12.4260  -11.3780   13.8440 hc        1 Y69      0.045033
@<TRIPOS>BOND
     1    1    2 2   
     2    2    3 1   
     3    2   22 1   
     4    3    4 1   
     5    3   23 1   
     6    3   24 1   
     7    4    5 1   
     8    4   25 1   
     9    4   26 1   
    10    5    6 1   
    11    5   27 1   
    12    5   28 1   
    13    6    7 1   
    14    6   29 1   
    15    6   30 1   
    16    7    8 1   
    17    7   31 1   
    18    7   32 1   
    19    8    9 1   
    20    8   33 1   
    21    8   34 1   
    22    9   10 1   
    23    9   35 1   
    24    9   36 1   
    25   10   11 1   
    26   10   37 1   
    27   10   38 1   
    28   11   12 1   
    29   11   39 1   
    30   11   40 1   
    31   12   13 1   
    32   12   41 1   
    33   12   42 1   
    34   13   14 1   
    35   14   15 1   
    36   14   43 1   
    37   14   44 1   
    38   15   16 1   
    39   15   45 1   
    40   15   46 1   
    41   16   17 1   
    42   17   18 1   
    43   17   47 1   
    44   17   48 1   
    45   18   19 1   
    46   18   49 1   
    47   18   50 1   
    48   19   20 1   
    49   20   21 1   
    50   20   51 1   
    51   20   52 1   
    52   21   53 1   
    53   21   54 1   
    54   21   55 1   
@<TRIPOS>SUBSTRUCTURE
     1 Y69         1 TEMP              0 ****  ****    0 ROOT
