@<TRIPOS>MOLECULE
molecule
   55    54     1     0     0
SMALL
bcc


@<TRIPOS>ATOM
      1 OAB          0.0000     0.0000     0.0000 o          1 Y69      -0.522100
      2 CAC          1.2080     0.0000     0.0000 c          1 Y69       0.567900
      3 CAE          1.9610     0.0000     1.3050 c3         1 Y69      -0.204400
      4 CAF          2.9330    -1.1820     1.3330 c3         1 Y69      -0.075400
      5 CAG          3.6980    -1.1820     2.6570 c3         1 Y69      -0.080400
      6 CAH          4.6710    -2.3620     2.6850 c3         1 Y69      -0.082400
      7 CAI          5.4350    -2.3640     4.0100 c3         1 Y69      -0.081400
      8 CAJ          6.4070    -3.5440     4.0380 c3         1 Y69      -0.082400
      9 CAK          7.1710    -3.5460     5.3630 c3         1 Y69      -0.079400
     10 CAL          8.1440    -4.7260     5.3900 c3         1 Y69      -0.081400
     11 CAM          8.9090    -4.7270     6.7160 c3         1 Y69      -0.080400
     12 CAN          9.8810    -5.9080     6.7420 c3         1 Y69       0.138400
     13 OAT         10.5960    -5.9090     7.9800 os         1 Y69      -0.421600
     14 CAP         11.5350    -6.9770     8.1090 c3         1 Y69       0.143400
     15 CAR         12.2370    -6.8790     9.4640 c3         1 Y69       0.141400
     16 OAU         11.2850    -7.0860    10.5100 os         1 Y69      -0.408600
     17 CAQ         11.8410    -7.0150    11.8250 c3         1 Y69       0.141400
     18 CAO         10.7370    -7.2490    12.8580 c3         1 Y69       0.142400
     19 OAS         10.2390    -8.5820    12.7300 os         1 Y69      -0.421600
     20 CAD          9.2000    -8.9060    13.6550 c3         1 Y69       0.136400
     21 CAA          8.7470   -10.3500    13.4260 c3         1 Y69      -0.090100
     22 H1           1.7490     0.0470    -0.9370 h4         1 Y69      -0.006800
     23 H2           2.5140     0.9260     1.4030 hc         1 Y69       0.068200
     24 H3           1.2600    -0.0900     2.1270 hc         1 Y69       0.068200
     25 H4           3.6340    -1.0920     0.5110 hc         1 Y69       0.045200
     26 H5           2.3790    -2.1080     1.2350 hc         1 Y69       0.045200
     27 H6           2.9980    -1.2720     3.4790 hc         1 Y69       0.043700
     28 H7           4.2520    -0.2560     2.7550 hc         1 Y69       0.043700
     29 H8           5.3720    -2.2720     1.8640 hc         1 Y69       0.041700
     30 H9           4.1170    -3.2880     2.5870 hc         1 Y69       0.041700
     31 H10          4.7340    -2.4540     4.8310 hc         1 Y69       0.042200
     32 H11          5.9880    -1.4380     4.1080 hc         1 Y69       0.042200
     33 H12          5.8540    -4.4700     3.9390 hc         1 Y69       0.041200
     34 H13          7.1080    -3.4540     3.2170 hc         1 Y69       0.041200
     35 H14          7.7250    -2.6190     5.4610 hc         1 Y69       0.043700
     36 H15          6.4700    -3.6360     6.1830 hc         1 Y69       0.043700
     37 H16          8.8450    -4.6360     4.5690 hc         1 Y69       0.040700
     38 H17          7.5900    -5.6520     5.2930 hc         1 Y69       0.040700
     39 H18          9.4630    -3.8010     6.8130 hc         1 Y69       0.054200
     40 H19          8.2090    -4.8170     7.5370 hc         1 Y69       0.054200
     41 H20          9.3280    -6.8340     6.6440 h1         1 Y69       0.021200
     42 H21         10.5820    -5.8180     5.9210 h1         1 Y69       0.021200
     43 H22         12.2700    -6.9090     7.3160 h1         1 Y69       0.032200
     44 H23         11.0160    -7.9260     8.0390 h1         1 Y69       0.032200
     45 H24         12.6820    -5.8970     9.5700 h1         1 Y69       0.030700
     46 H25         13.0110    -7.6340     9.5260 h1         1 Y69       0.030700
     47 H26         12.6060    -7.7740    11.9350 h1         1 Y69       0.030200
     48 H27         12.2790    -6.0360    11.9790 h1         1 Y69       0.030200
     49 H28         11.1390    -7.1080    13.8540 h1         1 Y69       0.032700
     50 H29          9.9300    -6.5450    12.6910 h1         1 Y69       0.032700
     51 H30          8.3620    -8.2360    13.5050 h1         1 Y69       0.020200
     52 H31          9.5710    -8.8000    14.6670 h1         1 Y69       0.020200
     53 H32          7.9910   -10.6110    14.1570 hc         1 Y69       0.043700
     54 H33          8.3340   -10.4460    12.4300 hc         1 Y69       0.043700
     55 H34          9.5950   -11.0160    13.5310 hc         1 Y69       0.043700
@<TRIPOS>BOND
     1    21    20 1
     2    20    19 1
     3    19    18 1
     4    18    17 1
     5    17    16 1
     6    16    15 1
     7    15    14 1
     8     1     2 2
     9    14    13 1
    10     3     2 1
    11     3     4 1
    12    13    12 1
    13     5     4 1
    14     5     6 1
    15     7     6 1
    16     7     8 1
    17    12    11 1
    18     9     8 1
    19     9    10 1
    20    11    10 1
    21     2    22 1
    22     3    23 1
    23     3    24 1
    24     4    25 1
    25     4    26 1
    26     5    27 1
    27     5    28 1
    28     6    29 1
    29     6    30 1
    30     7    31 1
    31     7    32 1
    32     8    33 1
    33     8    34 1
    34     9    35 1
    35     9    36 1
    36    10    37 1
    37    10    38 1
    38    11    39 1
    39    11    40 1
    40    12    41 1
    41    12    42 1
    42    14    43 1
    43    14    44 1
    44    15    45 1
    45    15    46 1
    46    17    47 1
    47    17    48 1
    48    18    49 1
    49    18    50 1
    50    20    51 1
    51    20    52 1
    52    21    53 1
    53    21    54 1
    54    21    55 1
@<TRIPOS>SUBSTRUCTURE
     1 Y69         1 TEMP              0 ****  ****    0 ROOT
