@<TRIPOS>MOLECULE
Y6M
   23    24     1     0     0
SMALL
bcc


@<TRIPOS>ATOM
      1 C01          0.0000     0.0000     0.0000 c3         1 Y6M      -0.045400
      2 C02          1.5280     0.0000     0.0000 c3         1 Y6M       0.045900
      3 C03          2.0550     0.0000     1.4110 ca         1 Y6M      -0.163300
      4 C04          3.3530    -0.4270     1.6410 ca         1 Y6M      -0.049000
      5 C05          3.8680    -0.4370     2.9210 ca         1 Y6M      -0.172000
      6 C06          3.0870    -0.0170     3.9890 ca         1 Y6M       0.153100
      7 C07          1.7880     0.4110     3.7660 ca         1 Y6M      -0.187000
      8 C08          1.2720     0.4180     2.4760 ca         1 Y6M       0.062600
      9 N09         -0.0450     0.8470     2.2740 nu         1 Y6M      -0.409600
     10 C10         -0.4950     1.1360     0.9050 c3         1 Y6M       0.351300
     11 O11         -1.9220     1.1960     0.8690 oh         1 Y6M      -0.567800
     12 O12          3.5940    -0.0270     5.2500 oh         1 Y6M      -0.503100
     13 H01         -0.3510    -0.9440     0.3980 hc         1 Y6M       0.034700
     14 H01A        -0.3510     0.1770    -1.0090 hc         1 Y6M       0.034700
     15 H02          1.8730     0.8980    -0.4980 hc         1 Y6M       0.021700
     16 H02A         1.8730    -0.8980    -0.4980 hc         1 Y6M       0.021700
     17 H04          3.9670    -0.7550     0.8110 ha         1 Y6M       0.103000
     18 H05          4.8840    -0.7720     3.0930 ha         1 Y6M       0.115000
     19 H07          1.1760     0.7390     4.5970 ha         1 Y6M       0.122000
     20 HN09        -0.2320     1.6360     2.8600 hn         1 Y6M       0.255800
     21 HO12         3.3810    -0.8450     5.6690 ho         1 Y6M       0.404000
     22 HC10        -0.0740     2.0770     0.5730 h2         1 Y6M      -0.015300
     23 HO11        -2.1950     2.0880     0.7290 ho         1 Y6M       0.388000
@<TRIPOS>BOND
     1     1     2 1   
     2     1    10 1   
     3     1    13 1   
     4     1    14 1   
     5     2     3 1   
     6     2    15 1   
     7     2    16 1   
     8     3     4 ar  
     9     3     8 ar  
    10     4     5 ar  
    11     4    17 1   
    12     5     6 ar  
    13     5    18 1   
    14     6     7 ar  
    15     6    12 1   
    16     7     8 ar  
    17     7    19 1   
    18     8     9 1   
    19     9    10 1   
    20     9    20 1   
    21    10    11 1   
    22    10    22 1   
    23    11    23 1   
    24    12    21 1   
@<TRIPOS>SUBSTRUCTURE
     1 Y6M         1 TEMP              0 ****  ****    0 ROOT
