@<TRIPOS>MOLECULE
molecule
   23    24     1     0     0
SMALL
bcc


@<TRIPOS>ATOM
      1 C01          0.0000     0.0000     0.0000 c3         1 Y6M      -0.085400
      2 C02          1.5280     0.0000     0.0000 c3         1 Y6M      -0.030100
      3 C03          2.0550     0.0000     1.4110 ca         1 Y6M      -0.150300
      4 C04          3.3530    -0.4270     1.6410 ca         1 Y6M      -0.084000
      5 C05          3.8680    -0.4370     2.9210 ca         1 Y6M      -0.185000
      6 C06          3.0870    -0.0170     3.9890 ca         1 Y6M       0.133100
      7 C07          1.7880     0.4110     3.7660 ca         1 Y6M      -0.200000
      8 C08          1.2720     0.4180     2.4760 ca         1 Y6M       0.158600
      9 N09         -0.0450     0.8470     2.2740 nu         1 Y6M      -0.727600
     10 C10         -0.4950     1.1360     0.9050 c3         1 Y6M       0.399300
     11 O11         -1.9220     1.1960     0.8690 oh         1 Y6M      -0.584800
     12 O12          3.5940    -0.0270     5.2500 oh         1 Y6M      -0.523100
     13 H01         -0.3510    -0.9440     0.3980 hc         1 Y6M       0.066700
     14 H01A        -0.3510     0.1770    -1.0090 hc         1 Y6M       0.066700
     15 H02          1.8730     0.8980    -0.4980 hc         1 Y6M       0.054200
     16 H02A         1.8730    -0.8980    -0.4980 hc         1 Y6M       0.054200
     17 H04          3.9670    -0.7550     0.8110 ha         1 Y6M       0.133000
     18 H05          4.8840    -0.7720     3.0930 ha         1 Y6M       0.140000
     19 H07          1.1760     0.7390     4.5970 ha         1 Y6M       0.145000
     20 HN09        -0.2320     1.6360     2.8600 hn         1 Y6M       0.379800
     21 HO12         3.3810    -0.8450     5.6690 ho         1 Y6M       0.422000
     22 HC10        -0.0740     2.0770     0.5730 h2         1 Y6M       0.015700
     23 HO11        -2.1950     2.0880     0.7290 ho         1 Y6M       0.403000
@<TRIPOS>BOND
     1     1     2 1
     2     1    10 1
     3     2     3 1
     4     3     4 ar
     5     3     8 ar
     6     4     5 ar
     7     5     6 ar
     8     6     7 ar
     9     6    12 1
    10     7     8 ar
    11     8     9 1
    12     9    10 1
    13    10    11 1
    14     1    13 1
    15     1    14 1
    16     2    15 1
    17     2    16 1
    18     4    17 1
    19     5    18 1
    20     7    19 1
    21     9    20 1
    22    12    21 1
    23    10    22 1
    24    11    23 1
@<TRIPOS>SUBSTRUCTURE
     1 Y6M         1 TEMP              0 ****  ****    0 ROOT
