@<TRIPOS>MOLECULE
Y6W
   62    64     1     0     0
SMALL
bcc


@<TRIPOS>ATOM
      1 C1           0.0000     0.0000     0.0000 c3         1 Y6W       0.164100
      2 C2           1.5300     0.0000     0.0000 c3         1 Y6W       0.144100
      3 O2           2.0070    -1.1690    -0.6710 oh         1 Y6W      -0.580800
      4 C3           2.0340     0.0000     1.4470 c3         1 Y6W       0.158100
      5 O3           3.4600     0.0730     1.4560 oh         1 Y6W      -0.582800
      6 C4           1.4530     1.2140     2.1780 c3         1 Y6W       0.140100
      7 O4           1.9280     2.4130     1.5630 oh         1 Y6W      -0.563800
      8 C5          -0.0750     1.1680     2.0940 c3         1 Y6W       0.146100
      9 O5          -0.4750     1.1380     0.7230 os         1 Y6W      -0.364600
     10 C6          -0.6610     2.4080     2.7700 c3         1 Y6W       0.224400
     11 O6          -2.0860     2.3090     2.7960 oh         1 Y6W      -0.553800
     12 C1'         -7.0190    -6.7360     4.3330 c3         1 Y6W       0.182500
     13 C2'         -8.3540    -6.5960     3.5580 c3         1 Y6W       0.124100
     14 O2'         -9.1260    -7.7950     3.6510 oh         1 Y6W      -0.547800
     15 C3'         -7.8630    -6.3670     2.1070 c3         1 Y6W       0.140100
     16 O3'         -7.8900    -7.5900     1.3700 oh         1 Y6W      -0.560800
     17 C4'         -6.4140    -5.8690     2.2730 c3         1 Y6W       0.133100
     18 O4'         -6.1470    -5.7850     3.6840 os         1 Y6W      -0.375600
     19 C5'         -6.2600    -4.4890     1.6300 c3         1 Y6W       0.304400
     20 O5'         -4.8900    -4.0880     1.6860 os         1 Y6W      -0.493200
     21 CAK         -0.5110    -1.2770     0.6690 c3         1 Y6W      -0.086400
     22 CAL         -2.0350    -1.3360     0.5610 c3         1 Y6W       0.011600
     23 CAM         -2.5460    -2.6140     1.2290 c3         1 Y6W      -0.030600
     24 PAN         -4.3630    -2.6840     1.0990 p5         1 Y6W       0.639600
     25 OAO         -5.0090    -1.4730     1.9430 o          1 Y6W      -0.656500
     26 NAZ         -7.2040    -6.3870     5.7440 n          1 Y6W       0.062000
     27 CBA         -7.0000    -7.3180     6.6930 c          1 Y6W       0.590500
     28 CBB         -7.5760    -5.1150     6.0850 cc         1 Y6W      -0.062400
     29 CBC         -7.7450    -4.7930     7.3850 cd         1 Y6W      -0.324200
     30 CBD         -7.5330    -5.7840     8.3720 c          1 Y6W       0.618700
     31 OBE         -6.6650    -8.4410     6.3690 o          1 Y6W      -0.705500
     32 NBF         -7.1620    -7.0250     7.9970 ns         1 Y6W      -0.133500
     33 OBG         -7.6800    -5.5180     9.5530 o          1 Y6W      -0.683500
     34 OBH         -4.7620    -2.5610    -0.3210 o          1 Y6W      -0.656500
     35 H1          -0.3590     0.0470    -1.0210 h1         1 Y6W       0.047700
     36 H2           1.8910     0.8870    -0.5070 h1         1 Y6W       0.026700
     37 HO2          2.3820    -0.9240    -1.5010 ho         1 Y6W       0.386000
     38 H3           1.7090    -0.9080     1.9410 h1         1 Y6W       0.026700
     39 HO3          3.8060    -0.6060     2.0110 ho         1 Y6W       0.382000
     40 H4           1.7580     1.1880     3.2170 h1         1 Y6W      -0.002300
     41 HO4          2.4200     2.9150     2.1920 ho         1 Y6W       0.378000
     42 H5          -0.4350     0.2760     2.5920 h1         1 Y6W       0.047700
     43 H6          -0.2860     2.4780     3.7840 h1         1 Y6W      -0.016800
     44 H6A         -0.3710     3.2930     2.2160 h1         1 Y6W      -0.016800
     45 HO6         -2.4450     3.0490     3.2560 ho         1 Y6W       0.377000
     46 HO2'        -9.9860    -7.5900     3.9770 ho         1 Y6W       0.377000
     47 H3'         -8.4670    -5.6110     1.6200 h1         1 Y6W       0.017700
     48 HO3'        -8.2950    -7.4430     0.5310 ho         1 Y6W       0.386000
     49 H4'         -5.7310    -6.5730     1.8120 h1         1 Y6W       0.043700
     50 H5'         -6.8690    -3.7710     2.1670 h1         1 Y6W      -0.010800
     51 H5'A        -6.5820    -4.5340     0.5970 h1         1 Y6W      -0.010800
     52 HAK         -0.0810    -2.1400     0.1750 hc         1 Y6W       0.020200
     53 HAKA        -0.2230    -1.2780     1.7130 hc         1 Y6W       0.020200
     54 HAL         -2.4660    -0.4730     1.0540 hc         1 Y6W       0.036700
     55 HALA        -2.3230    -1.3350    -0.4840 hc         1 Y6W       0.036700
     56 HAM         -2.1150    -3.4770     0.7360 hc         1 Y6W       0.009200
     57 HAMA        -2.2590    -2.6140     2.2740 hc         1 Y6W       0.009200
     58 HBB         -7.7340    -4.3690     5.3150 h4         1 Y6W       0.153000
     59 HBC         -8.0420    -3.7900     7.6680 ha         1 Y6W       0.150000
     60 HNBF        -7.0080    -7.7300     8.6900 hn         1 Y6W       0.199500
     61 H1'         -6.6260    -7.7400     4.2310 h2         1 Y6W       0.089700
     62 H2'         -8.9140    -5.7390     3.9120 h1         1 Y6W       0.014700
@<TRIPOS>BOND
     1     1     2 1   
     2     1     9 1   
     3     1    21 1   
     4     1    35 1   
     5     2     3 1   
     6     2     4 1   
     7     2    36 1   
     8     3    37 1   
     9     4     5 1   
    10     4     6 1   
    11     4    38 1   
    12     5    39 1   
    13     6     7 1   
    14     6     8 1   
    15     6    40 1   
    16     7    41 1   
    17     8     9 1   
    18     8    10 1   
    19     8    42 1   
    20    10    11 1   
    21    10    43 1   
    22    10    44 1   
    23    11    45 1   
    24    12    13 1   
    25    12    18 1   
    26    12    26 1   
    27    12    61 1   
    28    13    14 1   
    29    13    15 1   
    30    13    62 1   
    31    14    46 1   
    32    15    16 1   
    33    15    17 1   
    34    15    47 1   
    35    16    48 1   
    36    17    18 1   
    37    17    19 1   
    38    17    49 1   
    39    19    20 1   
    40    19    50 1   
    41    19    51 1   
    42    20    24 1   
    43    21    22 1   
    44    21    52 1   
    45    21    53 1   
    46    22    23 1   
    47    22    54 1   
    48    22    55 1   
    49    23    24 1   
    50    23    56 1   
    51    23    57 1   
    52    24    25 1   
    53    24    34 1   
    54    26    27 1   
    55    26    28 1   
    56    27    31 2   
    57    27    32 1   
    58    28    29 2   
    59    28    58 1   
    60    29    30 1   
    61    29    59 1   
    62    30    32 1   
    63    30    33 2   
    64    32    60 1   
@<TRIPOS>SUBSTRUCTURE
     1 Y6W         1 TEMP              0 ****  ****    0 ROOT
