@<TRIPOS>MOLECULE
Y70
   31    33     1     0     0
SMALL
bcc


@<TRIPOS>ATOM
      1 C1           0.0000     0.0000     0.0000 ca         1 Y70      -0.177000
      2 C2           1.3780     0.0000     0.0000 ca         1 Y70      -0.027000
      3 C3           2.0850     0.0000     1.1950 ca         1 Y70      -0.083000
      4 C4           1.4050     0.0010     2.4000 ca         1 Y70      -0.105600
      5 C5          -0.0060     0.0010     2.4110 ca         1 Y70      -0.299600
      6 C6          -0.7060     0.0000     1.2050 ca         1 Y70       0.137600
      7 C7           1.8190     0.0010     3.8180 c          1 Y70       0.659100
      8 N8           0.7130     0.0010     4.5860 n          1 Y70      -0.124400
      9 C9          -0.4000     0.0010     3.8290 c          1 Y70       0.687100
     10 N10         -2.0930     0.0020     1.2030 nv         1 Y70      -0.403200
     11 O11         -1.5400     0.0020     4.2490 o          1 Y70      -0.667500
     12 C12          0.7200     0.0010     6.0500 c3         1 Y70      -0.039300
     13 O13          2.9640    -0.0000     4.2250 o          1 Y70      -0.603500
     14 C14          0.3430     1.3940     6.5650 c3         1 Y70      -0.044400
     15 C15         -0.2820    -1.0010     6.5580 c          1 Y70       0.599500
     16 N16         -1.5520    -0.6500     6.8130 ns         1 Y70      -0.122500
     17 C17         -2.0020     0.6020     6.6440 c          1 Y70       0.637500
     18 C18         -1.0980     1.6970     6.1410 c3         1 Y70      -0.126400
     19 O19          0.0650    -2.1480     6.7410 o          1 Y70      -0.634500
     20 O20         -3.1580     0.8580     6.9000 o          1 Y70      -0.642500
     21 H1          -0.5390    -0.0000    -0.9400 ha         1 Y70       0.116000
     22 H2           1.9140    -0.0000    -0.9410 ha         1 Y70       0.106000
     23 H3           3.1690     0.0000     1.1840 ha         1 Y70       0.120000
     24 H101        -2.5920     0.0020     0.3350 hn         1 Y70       0.281800
     25 H102        -2.5950    -0.0100     2.0690 hn         1 Y70       0.281800
     26 H12          1.7070    -0.2610     6.4120 h1         1 Y70       0.087700
     27 H141         1.0100     2.1320     6.1370 hc         1 Y70       0.035700
     28 H142         0.4150     1.4130     7.6450 hc         1 Y70       0.035700
     29 H181        -1.1540     1.7440     5.0600 hc         1 Y70       0.060700
     30 H182        -1.4080     2.6440     6.5660 hc         1 Y70       0.060700
     31 H16         -2.1880    -1.3490     7.1420 hn         1 Y70       0.195500
@<TRIPOS>BOND
     1     1     2 ar  
     2     1     6 ar  
     3     1    21 1   
     4     2     3 ar  
     5     2    22 1   
     6     3     4 ar  
     7     3    23 1   
     8     4     5 ar  
     9     4     7 1   
    10     5     6 ar  
    11     5     9 1   
    12     6    10 1   
    13     7     8 1   
    14     7    13 2   
    15     8     9 1   
    16     8    12 1   
    17     9    11 2   
    18    10    24 1   
    19    10    25 1   
    20    12    14 1   
    21    12    15 1   
    22    12    26 1   
    23    14    18 1   
    24    14    27 1   
    25    14    28 1   
    26    15    16 1   
    27    15    19 2   
    28    16    17 1   
    29    16    31 1   
    30    17    18 1   
    31    17    20 2   
    32    18    29 1   
    33    18    30 1   
@<TRIPOS>SUBSTRUCTURE
     1 Y70         1 TEMP              0 ****  ****    0 ROOT
