@<TRIPOS>MOLECULE
molecule
   31    33     1     0     0
SMALL
bcc


@<TRIPOS>ATOM
      1 C1           0.0000     0.0000     0.0000 ca         1 Y70      -0.195000
      2 C2           1.3780     0.0000     0.0000 ca         1 Y70      -0.061000
      3 C3           2.0850     0.0000     1.1950 ca         1 Y70      -0.116000
      4 C4           1.4050     0.0010     2.4000 ca         1 Y70      -0.097600
      5 C5          -0.0060     0.0010     2.4110 ca         1 Y70      -0.268600
      6 C6          -0.7060     0.0000     1.2050 ca         1 Y70       0.280600
      7 C7           1.8190     0.0010     3.8180 c          1 Y70       0.727100
      8 N8           0.7130     0.0010     4.5860 n          1 Y70      -0.488400
      9 C9          -0.4000     0.0010     3.8290 c          1 Y70       0.740100
     10 N10         -2.0930     0.0020     1.2030 nv         1 Y70      -0.893200
     11 O11         -1.5400     0.0020     4.2490 o          1 Y70      -0.615500
     12 C12          0.7200     0.0010     6.0500 c3         1 Y70       0.050700
     13 O13          2.9640    -0.0000     4.2250 o          1 Y70      -0.567500
     14 C14          0.3430     1.3940     6.5650 c3         1 Y70      -0.107400
     15 C15         -0.2820    -1.0010     6.5580 c          1 Y70       0.693500
     16 N16         -1.5520    -0.6500     6.8130 ns         1 Y70      -0.555500
     17 C17         -2.0020     0.6020     6.6440 c          1 Y70       0.724500
     18 C18         -1.0980     1.6970     6.1410 c3         1 Y70      -0.162400
     19 O19          0.0650    -2.1480     6.7410 o          1 Y70      -0.594500
     20 O20         -3.1580     0.8580     6.9000 o          1 Y70      -0.609500
     21 H1          -0.5390    -0.0000    -0.9400 ha         1 Y70       0.142000
     22 H2           1.9140    -0.0000    -0.9410 ha         1 Y70       0.143000
     23 H3           3.1690     0.0000     1.1840 ha         1 Y70       0.151000
     24 H101        -2.5920     0.0020     0.3350 hn         1 Y70       0.447800
     25 H102        -2.5950    -0.0100     2.0690 hn         1 Y70       0.447800
     26 H12          1.7070    -0.2610     6.4120 h1         1 Y70       0.121700
     27 H141         1.0100     2.1320     6.1370 hc         1 Y70       0.069200
     28 H142         0.4150     1.4130     7.6450 hc         1 Y70       0.069200
     29 H181        -1.1540     1.7440     5.0600 hc         1 Y70       0.088700
     30 H182        -1.4080     2.6440     6.5660 hc         1 Y70       0.088700
     31 H16         -2.1880    -1.3490     7.1420 hn         1 Y70       0.348500
@<TRIPOS>BOND
     1     1     2 ar
     2     1     6 ar
     3     2     3 ar
     4     3     4 ar
     5     4     5 ar
     6     4     7 1
     7     5     6 ar
     8     5     9 1
     9     6    10 1
    10     7     8 1
    11     7    13 2
    12     8     9 1
    13     8    12 1
    14     9    11 2
    15    12    14 1
    16    12    15 1
    17    14    18 1
    18    15    16 1
    19    15    19 2
    20    16    17 1
    21    17    18 1
    22    17    20 2
    23     1    21 1
    24     2    22 1
    25     3    23 1
    26    10    24 1
    27    10    25 1
    28    12    26 1
    29    14    27 1
    30    14    28 1
    31    18    29 1
    32    18    30 1
    33    16    31 1
@<TRIPOS>SUBSTRUCTURE
     1 Y70         1 TEMP              0 ****  ****    0 ROOT
