@<TRIPOS>MOLECULE
molecule
   57    60     1     0     0
SMALL
bcc


@<TRIPOS>ATOM
      1 C1           0.0000     0.0000     0.0000 ca         1 Y7N      -0.130000
      2 C2           1.3840     0.0000     0.0000 ca         1 Y7N      -0.136000
      3 C3          -0.6920    -0.0000     1.1910 ca         1 Y7N      -0.104000
      4 C4          -2.7530    -1.3370     2.2920 ca         1 Y7N      -0.125000
      5 C5           2.0790     0.0000     1.1960 ca         1 Y7N      -0.124000
      6 C6          -3.7360    -1.5650     1.3500 ca         1 Y7N      -0.156000
      7 C7           0.0050    -0.0000     2.4090 ca         1 Y7N      -0.037800
      8 C8          -2.8460    -0.2430     3.1530 ca         1 Y7N      -0.086800
      9 C9          -3.9530     0.6300     3.0540 ca         1 Y7N      -0.027600
     10 C10          1.3980    -0.0010     2.3990 ca         1 Y7N      -0.104300
     11 C11         -4.8250    -0.7130     1.2460 ca         1 Y7N       0.040100
     12 C12         -4.9400     0.3860     2.0950 ca         1 Y7N       0.064100
     13 C13         -0.5050     0.0000     3.7920 ce         1 Y7N      -0.146400
     14 C14         -1.8000    -0.0000     4.1560 cf         1 Y7N       0.010800
     15 C15         -4.0650     1.7880     3.9550 c          1 Y7N       0.880200
     16 C17          1.9150    -0.0010     3.8170 c3         1 Y7N      -0.040100
     17 C18         -6.8820     0.1300     1.0260 c3         1 Y7N       0.327200
     18 C19          0.6800     0.0000     4.7270 c3         1 Y7N       0.163900
     19 C20          1.2660    -2.4330     7.6240 c3         1 Y7N      -0.347400
     20 C21          2.0280    -2.1600     8.9220 c3         1 Y7N      -0.038400
     21 C22          2.0130    -3.4160     9.7960 c3         1 Y7N      -0.071400
     22 C23          2.7760    -3.1430    11.0940 c3         1 Y7N      -0.113400
     23 C24          2.7620    -4.3990    11.9680 c3         1 Y7N       0.088800
     24 N26          0.6650    -1.2020     5.5640 ns         1 Y7N      -0.561900
     25 N25          3.4940    -4.1370    13.2140 nz         1 Y7N      -0.811600
     26 O31         -4.7020     1.6630     5.1360 o          1 Y7N      -0.817300
     27 O27         -3.5840     2.8560     3.6340 o          1 Y7N      -0.817300
     28 O28          1.8450    -0.1940     7.1500 o          1 Y7N      -0.667100
     29 O29         -5.9050    -0.7310     0.4100 os         1 Y7N      -0.343900
     30 O30         -6.0880     1.0540     1.7910 os         1 Y7N      -0.294900
     31 H1          -0.5400     0.0000    -0.9390 ha         1 Y7N       0.130000
     32 H2           1.9240     0.0000    -0.9390 ha         1 Y7N       0.121000
     33 H3          -1.7760    -0.0000     1.1870 ha         1 Y7N       0.171000
     34 H5           3.1630     0.0000     1.1900 ha         1 Y7N       0.117000
     35 H14         -2.0710     0.1650     5.1920 ha         1 Y7N       0.158000
     36 H171         2.5080     0.8880     3.9960 hc         1 Y7N       0.056200
     37 H172         2.5060    -0.8910     3.9960 hc         1 Y7N       0.056200
     38 H19          0.6700     0.8920     5.3410 h1         1 Y7N       0.098700
     39 H201         0.9240    -1.4170     7.7820 hc         1 Y7N       0.123700
     40 H202         0.3500    -3.0060     7.7110 hc         1 Y7N       0.123700
     41 H26          0.2180    -2.0350     5.2360 hn         1 Y7N       0.327500
     42 H181        -7.4540     0.6550     0.2710 h2         1 Y7N       0.058200
     43 H182        -7.5330    -0.4410     1.6770 h2         1 Y7N       0.058200
     44 H211         3.0520    -1.8930     8.6900 hc         1 Y7N       0.057200
     45 H212         1.5540    -1.3440     9.4540 hc         1 Y7N       0.057200
     46 H221         0.9890    -3.6820    10.0280 hc         1 Y7N       0.058700
     47 H222         2.4870    -4.2320     9.2630 hc         1 Y7N       0.058700
     48 H231         2.3020    -2.3270    11.6270 hc         1 Y7N       0.067200
     49 H232         3.8000    -2.8760    10.8620 hc         1 Y7N       0.067200
     50 H241         1.7380    -4.6650    12.2010 hx         1 Y7N       0.111700
     51 H242         3.2350    -5.2150    11.4360 hx         1 Y7N       0.111700
     52 H251         3.0570    -3.3830    13.7060 hn         1 Y7N       0.454800
     53 H252         4.4400    -3.8900    13.0000 hn         1 Y7N       0.454800
     54 C16          1.2800    -1.1960     6.7630 c          1 Y7N       0.724100
     55 H4          -1.9070    -2.0100     2.3630 ha         1 Y7N       0.126000
     56 H253         3.4650    -4.9500    13.7970 hn         1 Y7N       0.454800
     57 H6          -3.6550    -2.4160     0.6860 ha         1 Y7N       0.126000
@<TRIPOS>BOND
     1     1     2 ar
     2     1     3 ar
     3     2     5 ar
     4     3     7 ar
     5     4     6 ar
     6     4     8 ar
     7     5    10 ar
     8     6    11 ar
     9     7    10 ar
    10     7    13 1
    11     8     9 ar
    12     8    14 1
    13     9    12 ar
    14     9    15 1
    15    10    16 1
    16    11    12 ar
    17    11    29 1
    18    12    30 1
    19    13    14 2
    20    13    18 1
    21    15    26 1
    22    15    27 1
    23    54    19 1
    24    54    24 1
    25    54    28 2
    26    16    18 1
    27    17    29 1
    28    17    30 1
    29    18    24 1
    30    19    20 1
    31    20    21 1
    32    21    22 1
    33    22    23 1
    34    23    25 1
    35     1    31 1
    36     2    32 1
    37     3    33 1
    38     5    34 1
    39     4    55 1
    40     6    57 1
    41    14    35 1
    42    16    36 1
    43    16    37 1
    44    18    38 1
    45    19    39 1
    46    19    40 1
    47    24    41 1
    48    17    42 1
    49    17    43 1
    50    20    44 1
    51    20    45 1
    52    21    46 1
    53    21    47 1
    54    22    48 1
    55    22    49 1
    56    23    50 1
    57    23    51 1
    58    25    52 1
    59    25    53 1
    60    56    25 1
@<TRIPOS>SUBSTRUCTURE
     1 Y7N         1 TEMP              0 ****  ****    0 ROOT
