@<TRIPOS>MOLECULE
Y7Y
   41    42     1     0     0
SMALL
bcc


@<TRIPOS>ATOM
      1 CAU          0.0000     0.0000     0.0000 c3         1 Y7Y       0.270700
      2 OAT          1.4520     0.0000     0.0000 os         1 Y7Y      -0.417900
      3 CAR          2.0620     0.0000     1.1960 c          1 Y7Y       0.691100
      4 OAS          1.4040     0.0010     2.2100 o          1 Y7Y      -0.587000
      5 CAQ          3.5670     0.0000     1.2740 c3         1 Y7Y      -0.069400
      6 CAP          4.0010     0.0010     2.7410 c3         1 Y7Y      -0.019400
      7 CAO          5.5290     0.0020     2.8210 c3         1 Y7Y      -0.035400
      8 CAM          5.9630     0.0020     4.2880 c3         1 Y7Y      -0.016400
      9 CAC          7.4910     0.0020     4.3670 c3         1 Y7Y       0.060400
     10 SAB          8.1780    -1.5750     3.7160 ss         1 Y7Y      -0.412200
     11 CAA          9.7080    -1.5080     4.7330 c3         1 Y7Y       0.095700
     12 CAE          9.2180    -0.8580     6.0420 c3         1 Y7Y       0.013700
     13 CAD          7.9620    -0.0030     5.8350 c3         1 Y7Y       0.002700
     14 NAF          6.9420    -0.6600     6.6680 ns         1 Y7Y      -0.204900
     15 CAG          7.4900    -1.7230     7.2710 c          1 Y7Y       0.613500
     16 OAN          6.8700    -2.4510     8.0230 o          1 Y7Y      -0.674500
     17 NAH          8.7820    -1.9120     6.9720 n          1 Y7Y      -0.111400
     18 CAV          9.5580    -2.9070     7.4460 c          1 Y7Y       0.725100
     19 OAW         10.7220    -2.9830     7.1070 o          1 Y7Y      -0.645000
     20 OAX          9.0440    -3.8150     8.2960 os         1 Y7Y      -0.368900
     21 CAY          9.9370    -4.8580     8.7660 c3         1 Y7Y       0.275700
     22 H1          -0.3610     0.8850     0.5100 h1         1 Y7Y       0.001367
     23 H2          -0.3610    -0.8840     0.5110 h1         1 Y7Y       0.001367
     24 H3          -0.3610    -0.0000    -1.0210 h1         1 Y7Y       0.001367
     25 H4           3.9540    -0.8840     0.7830 hc         1 Y7Y       0.037700
     26 H5           3.9540     0.8850     0.7820 hc         1 Y7Y       0.037700
     27 H6           3.6130     0.8860     3.2320 hc         1 Y7Y       0.030700
     28 H7           3.6140    -0.8830     3.2330 hc         1 Y7Y       0.030700
     29 H8           5.9160    -0.8830     2.3300 hc         1 Y7Y       0.025700
     30 H9           5.9160     0.8860     2.3290 hc         1 Y7Y       0.025700
     31 H10          5.5760     0.8870     4.7780 hc         1 Y7Y       0.032200
     32 H11          5.5750    -0.8820     4.7790 hc         1 Y7Y       0.032200
     33 H12          7.9100     0.8480     3.8350 h1         1 Y7Y       0.062700
     34 H13         10.3770    -0.8020     4.2570 h1         1 Y7Y       0.079700
     35 H14          9.9800    -2.5310     4.9670 h1         1 Y7Y       0.079700
     36 H15         10.0080    -0.2660     6.4880 h1         1 Y7Y       0.057700
     37 H16          8.1340     1.0100     6.1800 h1         1 Y7Y       0.044700
     38 H17          5.9930    -0.3590     6.7690 hn         1 Y7Y       0.227500
     39 H18          9.3990    -5.5220     9.4310 h1         1 Y7Y       0.002367
     40 H19         10.7680    -4.4100     9.2980 h1         1 Y7Y       0.002367
     41 H20         10.3120    -5.4210     7.9200 h1         1 Y7Y       0.002367
@<TRIPOS>BOND
     1     1     2 1   
     2     1    22 1   
     3     1    23 1   
     4     1    24 1   
     5     2     3 1   
     6     3     4 2   
     7     3     5 1   
     8     5     6 1   
     9     5    25 1   
    10     5    26 1   
    11     6     7 1   
    12     6    27 1   
    13     6    28 1   
    14     7     8 1   
    15     7    29 1   
    16     7    30 1   
    17     8     9 1   
    18     8    31 1   
    19     8    32 1   
    20     9    10 1   
    21     9    13 1   
    22     9    33 1   
    23    10    11 1   
    24    11    12 1   
    25    11    34 1   
    26    11    35 1   
    27    12    13 1   
    28    12    17 1   
    29    12    36 1   
    30    13    14 1   
    31    13    37 1   
    32    14    15 1   
    33    14    38 1   
    34    15    16 2   
    35    15    17 1   
    36    17    18 1   
    37    18    19 2   
    38    18    20 1   
    39    20    21 1   
    40    21    39 1   
    41    21    40 1   
    42    21    41 1   
@<TRIPOS>SUBSTRUCTURE
     1 Y7Y         1 TEMP              0 ****  ****    0 ROOT
