@<TRIPOS>MOLECULE
Y80
   49    53     1     0     0
SMALL
bcc


@<TRIPOS>ATOM
      1 O3           0.0000     0.0000     0.0000 o          1 Y80      -0.392000
      2 C1           1.2130     0.0000     0.0000 c2         1 Y80       0.198000
      3 N2           1.8790     0.0000     1.1700 ns         1 Y80       0.138000
      4 C4           3.2770     0.0510     1.1970 ca         1 Y80      -0.111000
      5 C5           3.9740    -0.2380     2.3590 ca         1 Y80      -0.124000
      6 C6           5.3550    -0.1770     2.3670 ca         1 Y80      -0.086000
      7 C7           6.0450     0.1730     1.2200 ca         1 Y80      -0.102000
      8 C8           5.3580     0.4620     0.0550 ca         1 Y80      -0.077000
      9 C3           3.9760     0.3990     0.0400 ca         1 Y80      -0.094000
     10 N1           3.2500     0.6760    -1.1280 n          1 Y80       0.097000
     11 C2           1.9570    -0.0070    -1.3110 c3         1 Y80      -0.148000
     12 C9           3.7230     1.5330    -2.0530 c2         1 Y80       0.282000
     13 O1           4.7700     2.1230    -1.8580 o          1 Y80      -0.358000
     14 C10          2.9750     1.7570    -3.2990 c2         1 Y80      -0.048000
     15 C19          1.5160     2.0070    -3.2520 ca         1 Y80      -0.093000
     16 C24          1.0040     3.0130    -2.4320 ca         1 Y80      -0.096500
     17 C23         -0.3550     3.2410    -2.3920 ca         1 Y80      -0.087500
     18 C22         -1.2120     2.4760    -3.1630 ca         1 Y80      -0.078000
     19 C21         -0.7100     1.4760    -3.9780 ca         1 Y80      -0.087500
     20 C20          0.6490     1.2420    -4.0310 ca         1 Y80      -0.096500
     21 C11          3.6230     1.7340    -4.4960 c2         1 Y80      -0.262000
     22 C12          2.9240     2.1510    -5.7180 c3         1 Y80      -0.187000
     23 C17          2.0030     3.2060    -5.6740 c2         1 Y80      -0.022000
     24 C16          1.3550     3.5970    -6.8230 c2         1 Y80      -0.194500
     25 C15          1.6130     2.9480    -8.0250 c2         1 Y80       0.143000
     26 O2           0.9700     3.3390    -9.1560 os         1 Y80      -0.185000
     27 C18          1.2820     2.6290   -10.3570 c3         1 Y80       0.053000
     28 C14          2.5260     1.9010    -8.0750 c2         1 Y80      -0.194500
     29 C13          3.1800     1.5000    -6.9310 c2         1 Y80      -0.022000
     30 H1           1.3680    -0.0360     2.0300 hn         1 Y80       0.095000
     31 H2           3.4380    -0.5130     3.2590 ha         1 Y80       0.109000
     32 H3           5.8990    -0.4020     3.2760 ha         1 Y80       0.104000
     33 H4           7.1280     0.2190     1.2340 ha         1 Y80       0.108000
     34 H5           5.9000     0.7360    -0.8430 ha         1 Y80       0.152000
     35 H6           1.3750     0.5150    -2.0600 h1         1 Y80       0.108500
     36 H7           2.1290    -1.0300    -1.6240 h1         1 Y80       0.108500
     37 H8           1.6740     3.6140    -1.8270 ha         1 Y80       0.113000
     38 H9          -0.7540     4.0220    -1.7560 ha         1 Y80       0.109000
     39 H10         -2.2790     2.6570    -3.1260 ha         1 Y80       0.108000
     40 H11         -1.3850     0.8810    -4.5810 ha         1 Y80       0.109000
     41 H12          1.0400     0.4590    -4.6700 ha         1 Y80       0.113000
     42 H13          3.0090     1.0280    -5.0430 DU         1 Y80       0.285000
     43 H14          1.8010     3.7120    -4.7380 ha         1 Y80       0.122500
     44 H15          0.6420     4.4130    -6.7910 ha         1 Y80       0.124500
     45 H16          0.7050     3.0370   -11.1780 h1         1 Y80       0.040000
     46 H17          2.3390     2.7310   -10.5730 h1         1 Y80       0.040000
     47 H18          1.0380     1.5810   -10.2310 h1         1 Y80       0.040000
     48 H19          2.7230     1.3990    -9.0140 ha         1 Y80       0.124500
     49 H20          3.8910     0.6840    -6.9700 ha         1 Y80       0.122500
@<TRIPOS>BOND
     1     1     2 1   
     2     2     3 1   
     3     2    11 1   
     4     3     4 1   
     5     3    30 1   
     6     4     5 1   
     7     4     9 1   
     8     5     6 1   
     9     5    31 1   
    10     6     7 1   
    11     6    32 1   
    12     7     8 1   
    13     7    33 1   
    14     8     9 1   
    15     8    34 1   
    16     9    10 1   
    17    10    11 1   
    18    10    12 1   
    19    11    35 1   
    20    11    36 1   
    21    12    13 1   
    22    12    14 1   
    23    14    15 1   
    24    14    21 1   
    25    15    16 1   
    26    15    20 1   
    27    16    17 1   
    28    16    37 1   
    29    17    18 1   
    30    17    38 1   
    31    18    19 1   
    32    18    39 1   
    33    19    20 1   
    34    19    40 1   
    35    20    41 1   
    36    21    22 1   
    37    21    42 1   
    38    22    23 1   
    39    22    29 1   
    40    22    42 1   
    41    23    24 1   
    42    23    43 1   
    43    24    25 1   
    44    24    44 1   
    45    25    26 1   
    46    25    28 1   
    47    26    27 1   
    48    27    45 1   
    49    27    46 1   
    50    27    47 1   
    51    28    29 1   
    52    28    48 1   
    53    29    49 1   
@<TRIPOS>SUBSTRUCTURE
     1 Y80         1 TEMP              0 ****  ****    0 ROOT
