@<TRIPOS>MOLECULE
molecule
   49    52     1     0     0
SMALL
bcc


@<TRIPOS>ATOM
      1 O3           0.0000     0.0000     0.0000 o          1 Y80      -0.623500
      2 C1           1.2130     0.0000     0.0000 c          1 Y80       0.690500
      3 N2           1.8790     0.0000     1.1700 ns         1 Y80      -0.460100
      4 C4           3.2770     0.0510     1.1970 ca         1 Y80       0.035600
      5 C5           3.9740    -0.2380     2.3590 ca         1 Y80      -0.157000
      6 C6           5.3550    -0.1770     2.3670 ca         1 Y80      -0.115000
      7 C7           6.0450     0.1730     1.2200 ca         1 Y80      -0.137000
      8 C8           5.3580     0.4620     0.0550 ca         1 Y80      -0.101000
      9 C3           3.9760     0.3990     0.0400 ca         1 Y80       0.022600
     10 N1           3.2500     0.6760    -1.1280 n          1 Y80      -0.377000
     11 C2           1.9570    -0.0070    -1.3110 c3         1 Y80       0.015000
     12 C9           3.7230     1.5330    -2.0530 c          1 Y80       0.686300
     13 O1           4.7700     2.1230    -1.8580 o          1 Y80      -0.590100
     14 C10          2.9750     1.7570    -3.2990 ce         1 Y80      -0.156400
     15 C19          1.5160     2.0070    -3.2520 ca         1 Y80      -0.066800
     16 C24          1.0040     3.0130    -2.4320 ca         1 Y80      -0.123000
     17 C23         -0.3550     3.2410    -2.3920 ca         1 Y80      -0.121000
     18 C22         -1.2120     2.4760    -3.1630 ca         1 Y80      -0.116000
     19 C21         -0.7100     1.4760    -3.9780 ca         1 Y80      -0.121000
     20 C20          0.6490     1.2420    -4.0310 ca         1 Y80      -0.123000
     21 C11          3.6230     1.7340    -4.4960 cf         1 Y80      -0.013200
     22 C12          2.9240     2.1510    -5.7180 ca         1 Y80      -0.127800
     23 C17          2.0030     3.2060    -5.6740 ca         1 Y80      -0.064500
     24 C16          1.3550     3.5970    -6.8230 ca         1 Y80      -0.196000
     25 C15          1.6130     2.9480    -8.0250 ca         1 Y80       0.154100
     26 O2           0.9700     3.3390    -9.1560 os         1 Y80      -0.326900
     27 C18          1.2820     2.6290   -10.3570 c3         1 Y80       0.127700
     28 C14          2.5260     1.9010    -8.0750 ca         1 Y80      -0.196000
     29 C13          3.1800     1.5000    -6.9310 ca         1 Y80      -0.064500
     30 H1           1.3680    -0.0360     2.0300 hn         1 Y80       0.339500
     31 H2           3.4380    -0.5130     3.2590 ha         1 Y80       0.135000
     32 H3           5.8990    -0.4020     3.2760 ha         1 Y80       0.134000
     33 H4           7.1280     0.2190     1.2340 ha         1 Y80       0.137000
     34 H5           5.9000     0.7360    -0.8430 ha         1 Y80       0.169000
     35 H6           2.1290    -1.0300    -1.6240 h1         1 Y80       0.097700
     36 H7           1.3750     0.5150    -2.0600 h1         1 Y80       0.097700
     37 H8           1.6740     3.6140    -1.8270 ha         1 Y80       0.141000
     38 H9          -0.7540     4.0220    -1.7560 ha         1 Y80       0.135000
     39 H10         -2.2790     2.6570    -3.1260 ha         1 Y80       0.134000
     40 H11         -1.3850     0.8810    -4.5810 ha         1 Y80       0.135000
     41 H12          1.0400     0.4590    -4.6700 ha         1 Y80       0.141000
     42 H13          4.6900     1.5490    -4.5260 ha         1 Y80       0.150000
     43 H14          1.8010     3.7120    -4.7380 ha         1 Y80       0.143500
     44 H15          0.6420     4.4130    -6.7910 ha         1 Y80       0.142500
     45 H16          2.3390     2.7310   -10.5730 h1         1 Y80       0.042700
     46 H17          1.0380     1.5810   -10.2310 h1         1 Y80       0.042700
     47 H18          0.7050     3.0370   -11.1780 h1         1 Y80       0.042700
     48 H19          2.7230     1.3990    -9.0140 ha         1 Y80       0.142500
     49 H20          3.8910     0.6840    -6.9700 ha         1 Y80       0.143500
@<TRIPOS>BOND
     1    27    26 1
     2    26    25 1
     3    24    25 ar
     4    24    23 ar
     5    25    28 ar
     6    23    22 ar
     7    28    29 ar
     8     6     5 ar
     9     6     7 ar
    10     5     4 ar
    11    22    29 ar
    12    22    21 1
    13     7     8 ar
    14     4     3 1
    15     4     9 ar
    16    21    14 2
    17     8     9 ar
    18     3     2 1
    19     9    10 1
    20    16    17 ar
    21    16    15 ar
    22    14    15 1
    23    14    12 1
    24    17    18 ar
    25     2     1 2
    26     2    11 1
    27    15    20 ar
    28    10    12 1
    29    10    11 1
    30    12    13 2
    31    18    19 ar
    32    20    19 ar
    33     3    30 1
    34     5    31 1
    35     6    32 1
    36     7    33 1
    37     8    34 1
    38    11    35 1
    39    11    36 1
    40    16    37 1
    41    17    38 1
    42    18    39 1
    43    19    40 1
    44    20    41 1
    45    21    42 1
    46    23    43 1
    47    24    44 1
    48    27    45 1
    49    27    46 1
    50    27    47 1
    51    28    48 1
    52    29    49 1
@<TRIPOS>SUBSTRUCTURE
     1 Y80         1 TEMP              0 ****  ****    0 ROOT
