@<TRIPOS>MOLECULE
molecule
   40    43     1     0     0
SMALL
bcc


@<TRIPOS>ATOM
      1 O1           0.0000     0.0000     0.0000 o          1 Y81      -0.582100
      2 C2           1.2170     0.0000     0.0000 c          1 Y81       0.686700
      3 N            1.8890     0.0000     1.1680 n          1 Y81      -0.384000
      4 C1           3.3530    -0.1390     1.2000 c3         1 Y81       0.024000
      5 C14          1.2170     0.1390     2.3920 ca         1 Y81       0.020600
      6 C19          1.7660    -0.4570     3.5290 ca         1 Y81       0.036600
      7 C18          1.1190    -0.3300     4.7480 ca         1 Y81      -0.155000
      8 C17         -0.0620     0.3840     4.8310 ca         1 Y81      -0.112000
      9 C16         -0.6020     0.9750     3.7020 ca         1 Y81      -0.136000
     10 C15          0.0340     0.8510     2.4800 ca         1 Y81      -0.098000
     11 N2           2.9590    -1.1780     3.4230 ns         1 Y81      -0.460100
     12 C            3.7330    -1.0730     2.3210 c          1 Y81       0.687500
     13 O            4.7420    -1.7410     2.2300 o          1 Y81      -0.617500
     14 C3           1.9560    -0.0070    -1.2800 ca         1 Y81      -0.273900
     15 C13          1.4200    -0.6380    -2.4060 ca         1 Y81      -0.030000
     16 C6           2.1560    -0.6100    -3.5900 cp         1 Y81      -0.158300
     17 C5           3.3880     0.0420    -3.6060 ca         1 Y81       0.446200
     18 N1           3.8600     0.6250    -2.5220 nb         1 Y81      -0.687000
     19 C4           3.1970     0.6230    -1.3830 ca         1 Y81       0.427200
     20 C7           1.6350    -1.2630    -4.8160 cp         1 Y81      -0.042000
     21 C12          2.3760    -1.2310    -5.9960 ca         1 Y81      -0.115000
     22 C11          1.8870    -1.8410    -7.1320 ca         1 Y81      -0.124000
     23 C10          0.6630    -2.4850    -7.1030 ca         1 Y81      -0.120000
     24 C9          -0.0770    -2.5200    -5.9360 ca         1 Y81      -0.124000
     25 C8           0.4050    -1.9180    -4.7910 ca         1 Y81      -0.115000
     26 H1           3.6860    -0.5650     0.2610 h1         1 Y81       0.092200
     27 H2           3.7940     0.8330     1.3890 h1         1 Y81       0.092200
     28 H3           1.5380    -0.7900     5.6350 ha         1 Y81       0.137000
     29 H4          -0.5650     0.4850     5.7850 ha         1 Y81       0.136000
     30 H5          -1.5280     1.5320     3.7750 ha         1 Y81       0.139000
     31 H6          -0.3890     1.3130     1.5960 ha         1 Y81       0.168000
     32 H7           3.2420    -1.7790     4.1720 hn         1 Y81       0.341500
     33 H8           0.4590    -1.1360    -2.3600 ha         1 Y81       0.164000
     34 H9           3.9670     0.0680    -4.5220 h4         1 Y81       0.033100
     35 H10          3.6220     1.1140    -0.5160 h4         1 Y81       0.031100
     36 H11          3.3350    -0.7270    -6.0200 ha         1 Y81       0.134000
     37 H12          2.4630    -1.8160    -8.0490 ha         1 Y81       0.134500
     38 H13          0.2820    -2.9610    -7.9990 ha         1 Y81       0.133000
     39 H14         -1.0350    -3.0270    -5.9170 ha         1 Y81       0.134500
     40 H15         -0.1760    -1.9460    -3.8770 ha         1 Y81       0.134000
@<TRIPOS>BOND
     1    23    24 ar
     2    23    22 ar
     3    24    25 ar
     4    22    21 ar
     5    25    20 ar
     6    21    20 ar
     7     8     7 ar
     8     8     9 ar
     9    20    16 1
    10     7     6 ar
    11     9    10 ar
    12    16    15 ar
    13    16    17 ar
    14     6    11 1
    15     6     5 ar
    16    10     5 ar
    17    11    12 1
    18    15    14 ar
    19    17    18 ar
    20     5     3 1
    21    12    13 2
    22    12     4 1
    23    14    19 ar
    24    14     2 1
    25    18    19 ar
    26     3     2 1
    27     3     4 1
    28     2     1 2
    29     4    26 1
    30     4    27 1
    31     7    28 1
    32     8    29 1
    33     9    30 1
    34    10    31 1
    35    11    32 1
    36    15    33 1
    37    17    34 1
    38    19    35 1
    39    21    36 1
    40    22    37 1
    41    23    38 1
    42    24    39 1
    43    25    40 1
@<TRIPOS>SUBSTRUCTURE
     1 Y81         1 TEMP              0 ****  ****    0 ROOT
