@<TRIPOS>MOLECULE
Y81
   40    43     1     0     0
SMALL
bcc


@<TRIPOS>ATOM
      1 O1           0.0000     0.0000     0.0000 o          1 Y81      -0.625100
      2 C2           1.2170     0.0000     0.0000 c          1 Y81       0.611700
      3 N            1.8890     0.0000     1.1680 n          1 Y81       0.005000
      4 C1           3.3530    -0.1390     1.2000 c3         1 Y81      -0.057000
      5 C14          1.2170     0.1390     2.3920 ca         1 Y81      -0.107400
      6 C19          1.7660    -0.4570     3.5290 ca         1 Y81      -0.111400
      7 C18          1.1190    -0.3300     4.7480 ca         1 Y81      -0.123000
      8 C17         -0.0620     0.3840     4.8310 ca         1 Y81      -0.080000
      9 C16         -0.6020     0.9750     3.7020 ca         1 Y81      -0.102000
     10 C15          0.0340     0.8510     2.4800 ca         1 Y81      -0.072000
     11 N2           2.9590    -1.1780     3.4230 ns         1 Y81      -0.011100
     12 C            3.7330    -1.0730     2.3210 c          1 Y81       0.585500
     13 O            4.7420    -1.7410     2.2300 o          1 Y81      -0.654500
     14 C3           1.9560    -0.0070    -1.2800 ca         1 Y81      -0.277900
     15 C13          1.4200    -0.6380    -2.4060 ca         1 Y81      -0.006000
     16 C6           2.1560    -0.6100    -3.5900 cp         1 Y81      -0.148300
     17 C5           3.3880     0.0420    -3.6060 ca         1 Y81       0.423200
     18 N1           3.8600     0.6250    -2.5220 nb         1 Y81      -0.576000
     19 C4           3.1970     0.6230    -1.3830 ca         1 Y81       0.396200
     20 C7           1.6350    -1.2630    -4.8160 cp         1 Y81      -0.038000
     21 C12          2.3760    -1.2310    -5.9960 ca         1 Y81      -0.094000
     22 C11          1.8870    -1.8410    -7.1320 ca         1 Y81      -0.095500
     23 C10          0.6630    -2.4850    -7.1030 ca         1 Y81      -0.093000
     24 C9          -0.0770    -2.5200    -5.9360 ca         1 Y81      -0.095500
     25 C8           0.4050    -1.9180    -4.7910 ca         1 Y81      -0.094000
     26 H1           3.6860    -0.5650     0.2610 h1         1 Y81       0.065200
     27 H2           3.7940     0.8330     1.3890 h1         1 Y81       0.065200
     28 H3           1.5380    -0.7900     5.6350 ha         1 Y81       0.111000
     29 H4          -0.5650     0.4850     5.7850 ha         1 Y81       0.105000
     30 H5          -1.5280     1.5320     3.7750 ha         1 Y81       0.109000
     31 H6          -0.3890     1.3130     1.5960 ha         1 Y81       0.144000
     32 H7           3.2420    -1.7790     4.1720 hn         1 Y81       0.183500
     33 H8           0.4590    -1.1360    -2.3600 ha         1 Y81       0.135000
     34 H9           3.9670     0.0680    -4.5220 h4         1 Y81      -0.008900
     35 H10          3.6220     1.1140    -0.5160 h4         1 Y81      -0.004900
     36 H11          3.3350    -0.7270    -6.0200 ha         1 Y81       0.112000
     37 H12          2.4630    -1.8160    -8.0490 ha         1 Y81       0.105000
     38 H13          0.2820    -2.9610    -7.9990 ha         1 Y81       0.104000
     39 H14         -1.0350    -3.0270    -5.9170 ha         1 Y81       0.105000
     40 H15         -0.1760    -1.9460    -3.8770 ha         1 Y81       0.112000
@<TRIPOS>BOND
     1     1     2 2   
     2     2     3 1   
     3     2    14 1   
     4     3     4 1   
     5     3     5 1   
     6     4    12 1   
     7     4    26 1   
     8     4    27 1   
     9     5     6 ar  
    10     5    10 ar  
    11     6     7 ar  
    12     6    11 1   
    13     7     8 ar  
    14     7    28 1   
    15     8     9 ar  
    16     8    29 1   
    17     9    10 ar  
    18     9    30 1   
    19    10    31 1   
    20    11    12 1   
    21    11    32 1   
    22    12    13 2   
    23    14    15 ar  
    24    14    19 ar  
    25    15    16 ar  
    26    15    33 1   
    27    16    17 ar  
    28    16    20 1   
    29    17    18 ar  
    30    17    34 1   
    31    18    19 ar  
    32    19    35 1   
    33    20    21 ar  
    34    20    25 ar  
    35    21    22 ar  
    36    21    36 1   
    37    22    23 ar  
    38    22    37 1   
    39    23    24 ar  
    40    23    38 1   
    41    24    25 ar  
    42    24    39 1   
    43    25    40 1   
@<TRIPOS>SUBSTRUCTURE
     1 Y81         1 TEMP              0 ****  ****    0 ROOT
