@<TRIPOS>MOLECULE
molecule
   77    80     1     0     0
SMALL
bcc


@<TRIPOS>ATOM
      1 C01          0.0000     0.0000     0.0000 c3         1 Y83      -0.110433
      2 C02          1.5300     0.0000     0.0000 c3         1 Y83       0.176800
      3 C03          2.0400     0.0000     1.4430 c3         1 Y83      -0.110433
      4 C04          2.0400    -1.2510    -0.7200 c3         1 Y83      -0.110433
      5 C06          1.6530     2.3760    -0.1740 c          1 Y83       0.762100
      6 C09          1.6750     4.8130    -0.2070 c3         1 Y83       0.164700
      7 C10          2.1890     4.9300     1.2300 c3         1 Y83      -0.018300
      8 C12          4.4170     5.0820     2.9840 c3         1 Y83       0.005700
      9 C13          5.9370     5.1040     3.1510 c3         1 Y83       0.190500
     10 C15          7.8140     6.3600     2.1280 ca         1 Y83       0.211600
     11 C16          8.3420     7.5260     1.5870 ca         1 Y83      -0.203500
     12 C17          9.6640     7.5650     1.1920 ca         1 Y83      -0.082000
     13 C18         10.4630     6.4450     1.3350 ca         1 Y83      -0.185000
     14 C19          9.9420     5.2840     1.8730 ca         1 Y83      -0.082000
     15 C20          8.6200     5.2370     2.2690 ca         1 Y83      -0.203500
     16 C21          6.2820     5.0900     4.6180 c          1 Y83       0.632100
     17 C24          6.5920     3.9160     6.7300 c3         1 Y83       0.164300
     18 C25          6.4910     2.5080     7.2560 ca         1 Y83      -0.245600
     19 C26          7.5890     1.6700     7.2300 ca         1 Y83       0.435200
     20 C28          6.3850    -0.0450     8.1870 ca         1 Y83       0.426200
     21 C29          5.2480     0.7360     8.2520 ca         1 Y83      -0.257300
     22 C30          5.2950     2.0390     7.7780 ca         1 Y83      -0.078000
     23 C31          0.1500     4.9290    -0.2140 c3         1 Y83      -0.026200
     24 C32         -0.3470     4.9370    -1.6370 cc         1 Y83      -0.155400
     25 C33         -0.6120     6.0210    -2.3830 cd         1 Y83      -0.101100
     26 C35         -1.0640     4.2640    -3.7090 ca         1 Y83      -0.039200
     27 C36         -0.6270     3.7640    -2.4690 ca         1 Y83      -0.093800
     28 C37         -0.5430     2.3870    -2.2630 ca         1 Y83      -0.083000
     29 C38         -0.8860     1.5280    -3.2690 ca         1 Y83      -0.158000
     30 C39         -1.3190     2.0160    -4.4950 ca         1 Y83      -0.107000
     31 C40         -1.4080     3.3720    -4.7190 ca         1 Y83      -0.146000
     32 N08          2.0690     3.5160    -0.7620 ns         1 Y83      -0.555900
     33 N14          6.4790     6.3190     2.5340 nu         1 Y83      -0.799600
     34 N23          6.2580     3.9300     5.3050 ns         1 Y83      -0.588900
     35 N27          7.5070     0.4350     7.6880 nb         1 Y83      -0.689000
     36 N34         -1.0380     5.6380    -3.6260 na         1 Y83      -0.182400
     37 O05          2.0140     1.1840    -0.6850 os         1 Y83      -0.430900
     38 O07          0.9520     2.4260     0.8170 o          1 Y83      -0.639000
     39 O22          6.5810     6.1220     5.1800 o          1 Y83      -0.583100
     40 S11          4.0030     4.9400     1.2230 ss         1 Y83      -0.342200
     41 H1          -0.3610     0.8910     0.5000 hc         1 Y83       0.051033
     42 H2          -0.3610    -0.0120    -1.0210 hc         1 Y83       0.051033
     43 H3          -0.3610    -0.8780     0.5210 hc         1 Y83       0.051033
     44 H4           1.3740     0.5900     2.0610 hc         1 Y83       0.051033
     45 H5           3.0350     0.4270     1.4740 hc         1 Y83       0.051033
     46 H6           2.0710    -1.0170     1.8150 hc         1 Y83       0.051033
     47 H7           1.5920    -2.1310    -0.2740 hc         1 Y83       0.051033
     48 H8           3.1180    -1.3070    -0.6260 hc         1 Y83       0.051033
     49 H9           1.7700    -1.1990    -1.7680 hc         1 Y83       0.051033
     50 H10          2.1010     5.6080    -0.8080 h1         1 Y83       0.073700
     51 H11          1.8350     4.0860     1.8100 h1         1 Y83       0.081200
     52 H12          1.8250     5.8490     1.6710 h1         1 Y83       0.081200
     53 H13          4.0070     4.2350     3.5210 h1         1 Y83       0.070700
     54 H14          3.9970     5.9990     3.3810 h1         1 Y83       0.070700
     55 H15          6.3660     4.2330     2.6700 h1         1 Y83       0.081700
     56 H16          7.7160     8.4030     1.4750 ha         1 Y83       0.126000
     57 H17         10.0760     8.4740     0.7700 ha         1 Y83       0.126500
     58 H18         11.5010     6.4790     1.0240 ha         1 Y83       0.126000
     59 H19         10.5710     4.4080     1.9830 ha         1 Y83       0.126500
     60 H20          8.2120     4.3270     2.6910 ha         1 Y83       0.126000
     61 H21          7.6030     4.2810     6.8680 h1         1 Y83       0.061700
     62 H22          5.9020     4.5540     7.2690 h1         1 Y83       0.061700
     63 H23          8.5280     2.0300     6.8270 h4         1 Y83       0.029100
     64 H24          6.3560    -1.0640     8.5550 h4         1 Y83       0.026100
     65 H25          4.3300     0.3360     8.6650 ha         1 Y83       0.141000
     66 H26          4.4190     2.6750     7.8160 ha         1 Y83       0.142000
     67 H27         -0.2780     4.0860     0.3140 hc         1 Y83       0.071200
     68 H28         -0.1440     5.8490     0.2770 hc         1 Y83       0.071200
     69 H29         -0.5040     7.0460    -2.0500 h4         1 Y83       0.164000
     70 H30         -0.2070     1.9990    -1.3090 ha         1 Y83       0.143000
     71 H31         -0.8220     0.4590    -3.1090 ha         1 Y83       0.128000
     72 H32         -1.5870     1.3230    -5.2830 ha         1 Y83       0.129000
     73 H33         -1.7470     3.7430    -5.6790 ha         1 Y83       0.124000
     74 H34          2.6850     3.4750    -1.5500 hn         1 Y83       0.333500
     75 H35          5.8930     7.1210     2.4110 hn         1 Y83       0.451800
     76 H36          6.0260     3.0770     4.8370 hn         1 Y83       0.316500
     77 H37         -1.2970     6.2640    -4.3630 hn         1 Y83       0.295700
@<TRIPOS>BOND
     1    36    25 1
     2    36    26 1
     3    25    24 2
     4    20    21 ar
     5    20    35 ar
     6    26    31 ar
     7    26    27 ar
     8    31    30 ar
     9    21    22 ar
    10    24    27 1
    11    24    23 1
    12    35    19 ar
    13    27    28 ar
    14    23     6 1
    15    30    29 ar
    16    22    18 ar
    17     6    32 1
    18     6     7 1
    19    19    18 ar
    20    28    29 ar
    21     1     2 1
    22    32     5 1
    23    18    17 1
    24     7    40 1
    25     4     2 1
    26    37     2 1
    27    37     5 1
    28     2     3 1
    29     5    38 2
    30    17    34 1
    31    34    16 1
    32     8    40 1
    33     8     9 1
    34    33     9 1
    35    33    10 1
    36    16     9 1
    37    16    39 2
    38    15    10 ar
    39    15    14 ar
    40    10    11 ar
    41    14    13 ar
    42    11    12 ar
    43    13    12 ar
    44     1    41 1
    45     1    42 1
    46     1    43 1
    47     3    44 1
    48     3    45 1
    49     3    46 1
    50     4    47 1
    51     4    48 1
    52     4    49 1
    53     6    50 1
    54     7    51 1
    55     7    52 1
    56     8    53 1
    57     8    54 1
    58     9    55 1
    59    11    56 1
    60    12    57 1
    61    13    58 1
    62    14    59 1
    63    15    60 1
    64    17    61 1
    65    17    62 1
    66    19    63 1
    67    20    64 1
    68    21    65 1
    69    22    66 1
    70    23    67 1
    71    23    68 1
    72    25    69 1
    73    28    70 1
    74    29    71 1
    75    30    72 1
    76    31    73 1
    77    32    74 1
    78    33    75 1
    79    34    76 1
    80    36    77 1
@<TRIPOS>SUBSTRUCTURE
     1 Y83         1 TEMP              0 ****  ****    0 ROOT
