@<TRIPOS>MOLECULE
molecule
   13    13     1     0     0
SMALL
bcc


@<TRIPOS>ATOM
      1 Br1          0.0000     0.0000     0.0000 br         1 Y8I      -0.081100
      2 C02          1.8910     0.0000     0.0000 ca         1 Y8I      -0.030900
      3 C03          2.5810     0.0000     1.1990 ca         1 Y8I      -0.066000
      4 C04          3.9630     0.0000     1.2020 ca         1 Y8I      -0.045900
      5 Br5          4.9070    -0.0010     2.8410 br         1 Y8I      -0.068100
      6 C06          4.6580     0.0010    -0.0000 ca         1 Y8I       0.141100
      7 O07          6.0180     0.0010     0.0000 oh         1 Y8I      -0.509100
      8 C08          3.9640     0.0010    -1.2010 ca         1 Y8I      -0.153000
      9 C09          2.5820    -0.0040    -1.1980 ca         1 Y8I      -0.079000
     10 H1           2.0380    -0.0010     2.1360 ha         1 Y8I       0.160000
     11 H2           6.3330     0.8860    -0.0710 ho         1 Y8I       0.429000
     12 H3           4.5040     0.0000    -2.1400 ha         1 Y8I       0.153000
     13 H4           2.0390    -0.0040    -2.1360 ha         1 Y8I       0.151000
@<TRIPOS>BOND
     1     7     6 1
     2     8     6 ar
     3     8     9 ar
     4     6     4 ar
     5     9     2 ar
     6     4     5 1
     7     4     3 ar
     8     2     3 ar
     9     2     1 1
    10     3    10 1
    11     7    11 1
    12     8    12 1
    13     9    13 1
@<TRIPOS>SUBSTRUCTURE
     1 Y8I         1 TEMP              0 ****  ****    0 ROOT
