@<TRIPOS>MOLECULE
Y8L
   49    52     1     0     0
SMALL
bcc


@<TRIPOS>ATOM
      1 C17          0.0000     0.0000     0.0000 c3         1 Y8L       0.173800
      2 C18          1.5320     0.0000     0.0000 c3         1 Y8L       0.128800
      3 N19          2.0200     0.0000     1.3860 n7         1 Y8L      -0.576200
      4 C20          1.6120    -1.2200     2.0940 c3         1 Y8L       0.128800
      5 C21          0.0830    -1.2700     2.1800 c3         1 Y8L       0.173800
      6 N16         -0.4670    -1.1250     0.8230 nh         1 Y8L      -0.395400
      7 C12         -1.4090    -2.0330     0.3300 ce         1 Y8L       0.037000
      8 C13         -1.7440    -3.2150     1.1190 ce         1 Y8L      -0.043000
      9 C14         -2.6410    -4.1340     0.7100 cf         1 Y8L      -0.250600
     10 C11         -1.9890    -1.7970    -0.8560 c2         1 Y8L      -0.266200
     11 C10         -3.0060    -2.7870    -1.3800 c3         1 Y8L       0.004500
     12 C9          -3.3130    -3.9970    -0.5240 cf         1 Y8L       0.482600
     13 N7          -4.1850    -4.8940    -0.9180 ne         1 Y8L      -0.549700
     14 C4          -4.5280    -5.9200    -0.0890 ca         1 Y8L       0.781000
     15 N5          -3.7740    -7.0130    -0.0640 nb         1 Y8L      -0.671000
     16 N3          -5.6080    -5.7990     0.6780 nb         1 Y8L      -0.650000
     17 C2          -5.9740    -6.7730     1.4970 ca         1 Y8L       0.470200
     18 C1          -5.2220    -7.9320     1.5510 ca         1 Y8L      -0.373600
     19 C6          -4.0860    -8.0320     0.7360 ca         1 Y8L       0.561100
     20 C15         -3.2480    -9.2470     0.7630 cc         1 Y8L      -0.157200
     21 S23         -3.4900   -10.7010     1.7490 ss         1 Y8L      -0.245200
     22 C24         -2.1040   -11.5210     1.1380 c          1 Y8L       0.645100
     23 O28         -1.7140   -12.6320     1.4500 o          1 Y8L      -0.607500
     24 N25         -1.5420   -10.6890     0.2490 n          1 Y8L       0.047000
     25 C29         -0.3260   -11.0640    -0.4780 c3         1 Y8L       0.046300
     26 C26         -2.1410    -9.4920     0.0430 cd         1 Y8L      -0.101600
     27 C27         -1.5950    -8.4880    -0.9390 c3         1 Y8L       0.059100
     28 H171        -0.3630    -0.1170    -1.0140 h1         1 Y8L       0.028200
     29 H172        -0.3630     0.9310     0.4180 h1         1 Y8L       0.028200
     30 H181         1.8920     0.8860    -0.5080 h1         1 Y8L       0.011700
     31 H182         1.8930    -0.8860    -0.5080 h1         1 Y8L       0.011700
     32 H19          3.0180     0.0700     1.3880 hn         1 Y8L       0.254800
     33 H201         2.0290    -1.2120     3.0940 h1         1 Y8L       0.011700
     34 H202         1.9710    -2.0880     1.5530 h1         1 Y8L       0.011700
     35 H211        -0.2260    -2.2210     2.5970 h1         1 Y8L       0.028200
     36 H212        -0.2720    -0.4590     2.8040 h1         1 Y8L       0.028200
     37 H13         -1.2510    -3.3590     2.0740 ha         1 Y8L       0.110000
     38 H11         -1.8880    -0.8260    -1.3240 ha         1 Y8L       0.131000
     39 H14         -2.8510    -4.9920     1.3380 ha         1 Y8L       0.118000
     40 H101        -2.6540    -3.1440    -2.3400 hc         1 Y8L       0.036700
     41 H102        -3.9350    -2.2510    -1.5370 hc         1 Y8L       0.036700
     42 H2          -6.8560    -6.6650     2.1150 h4         1 Y8L      -0.013900
     43 H1          -5.5020    -8.7430     2.2120 ha         1 Y8L       0.138000
     44 H291         0.4500   -10.3330    -0.2840 h1         1 Y8L       0.029367
     45 H292         0.0060   -12.0400    -0.1470 h1         1 Y8L       0.029367
     46 H293        -0.5350   -11.0940    -1.5400 h1         1 Y8L       0.029367
     47 H271        -2.3740    -8.2030    -1.6350 hc         1 Y8L       0.029700
     48 H272        -1.2490    -7.6120    -0.4050 hc         1 Y8L       0.029700
     49 H273        -0.7680    -8.9290    -1.4840 hc         1 Y8L       0.029700
@<TRIPOS>BOND
     1     1     2 1   
     2     1     6 1   
     3     1    28 1   
     4     1    29 1   
     5     2     3 1   
     6     2    30 1   
     7     2    31 1   
     8     3     4 1   
     9     3    32 1   
    10     4     5 1   
    11     4    33 1   
    12     4    34 1   
    13     5     6 1   
    14     5    35 1   
    15     5    36 1   
    16     6     7 1   
    17     7     8 1   
    18     7    10 2   
    19     8     9 2   
    20     8    37 1   
    21     9    12 1   
    22     9    39 1   
    23    10    11 1   
    24    10    38 1   
    25    11    12 1   
    26    11    40 1   
    27    11    41 1   
    28    12    13 2   
    29    13    14 1   
    30    14    15 ar  
    31    14    16 ar  
    32    15    19 ar  
    33    16    17 ar  
    34    17    18 ar  
    35    17    42 1   
    36    18    19 ar  
    37    18    43 1   
    38    19    20 1   
    39    20    21 1   
    40    20    26 2   
    41    21    22 1   
    42    22    23 2   
    43    22    24 1   
    44    24    25 1   
    45    24    26 1   
    46    25    44 1   
    47    25    45 1   
    48    25    46 1   
    49    26    27 1   
    50    27    47 1   
    51    27    48 1   
    52    27    49 1   
@<TRIPOS>SUBSTRUCTURE
     1 Y8L         1 TEMP              0 ****  ****    0 ROOT
