@<TRIPOS>MOLECULE
molecule
   32    34     1     0     0
SMALL
bcc


@<TRIPOS>ATOM
      1 C01          0.0000     0.0000     0.0000 cc         1 Y9B       0.183500
      2 C02         -0.7940    -0.0000    -1.2430 c          1 Y9B       0.608600
      3 N03         -2.1400    -0.0010    -1.1820 ns         1 Y9B      -0.479100
      4 O05         -0.2340    -0.0000    -2.3210 o          1 Y9B      -0.552100
      5 C06          1.3950     0.0000     0.0000 cc         1 Y9B       0.547300
      6 O07          2.1490     0.0000    -1.1300 oh         1 Y9B      -0.541300
      7 N08          1.8970     0.0000     1.2090 nd         1 Y9B      -0.618100
      8 S09          0.5770     0.0010     2.2710 ss         1 Y9B       0.547200
      9 N10         -0.5510     0.0050     1.1900 nd         1 Y9B      -0.545100
     10 C11         -4.3890     0.3120    -4.6860 cp         1 Y9B      -0.059000
     11 C12         -4.0410    -0.9450    -4.1890 ca         1 Y9B       0.119900
     12 F13         -4.4310    -2.0620    -4.8410 f          1 Y9B      -0.107900
     13 C14         -3.2960    -1.0450    -3.0290 ca         1 Y9B       0.115900
     14 F15         -2.9580    -2.2620    -2.5470 f          1 Y9B      -0.109400
     15 C16         -2.8940     0.1040    -2.3560 ca         1 Y9B       0.018600
     16 C17         -3.2410     1.3580    -2.8500 ca         1 Y9B       0.115900
     17 F18         -2.8480     2.4730    -2.1950 f          1 Y9B      -0.109400
     18 C19         -3.9860     1.4640    -4.0090 ca         1 Y9B       0.119900
     19 F20         -4.3210     2.6820    -4.4880 f          1 Y9B      -0.107900
     20 C21         -6.6650     0.6310    -8.2630 ca         1 Y9B      -0.113000
     21 C23         -7.2040     1.0600    -7.0630 ca         1 Y9B      -0.128500
     22 C25         -6.4700     0.9580    -5.8990 ca         1 Y9B      -0.095500
     23 C27         -5.1840     0.4230    -5.9330 cp         1 Y9B      -0.058000
     24 C28         -4.6460    -0.0070    -7.1450 ca         1 Y9B      -0.095500
     25 C30         -5.3890     0.0990    -8.3040 ca         1 Y9B      -0.128500
     26 H1          -2.6010    -0.1010    -0.2990 hn         1 Y9B       0.350500
     27 H2           3.0630    -0.0010    -0.8970 ho         1 Y9B       0.443000
     28 H5          -7.2440     0.7130    -9.1750 ha         1 Y9B       0.132000
     29 H6          -8.2040     1.4760    -7.0380 ha         1 Y9B       0.135500
     30 H7          -6.8930     1.2930    -4.9600 ha         1 Y9B       0.138000
     31 H8          -3.6460    -0.4240    -7.1770 ha         1 Y9B       0.138000
     32 H9          -4.9720    -0.2350    -9.2460 ha         1 Y9B       0.135500
@<TRIPOS>BOND
     1     1     2 1
     2     1     5 1
     3     1     9 2
     4     2     3 1
     5     2     4 2
     6     3    15 1
     7     5     6 1
     8     5     7 2
     9     7     8 1
    10     8     9 1
    11    10    11 ar
    12    10    18 ar
    13    10    23 1
    14    11    12 1
    15    11    13 ar
    16    13    14 1
    17    13    15 ar
    18    15    16 ar
    19    16    17 1
    20    16    18 ar
    21    18    19 1
    22    20    21 ar
    23    20    25 ar
    24    21    22 ar
    25    22    23 ar
    26    23    24 ar
    27    24    25 ar
    28     3    26 1
    29     6    27 1
    30    20    28 1
    31    21    29 1
    32    22    30 1
    33    24    31 1
    34    25    32 1
@<TRIPOS>SUBSTRUCTURE
     1 Y9B         1 TEMP              0 ****  ****    0 ROOT
