@<TRIPOS>MOLECULE
Y9Z
   56    58     1     0     0
SMALL
bcc


@<TRIPOS>ATOM
      1 N           1.7210    1.3660    0.7040 n         1 Y9Z     -0.504400
      2 C           3.0880    1.5120    1.0930 c         1 Y9Z      0.646000
      3 O           3.8620    1.9440    0.2340 o         1 Y9Z     -0.549500
      4 P           2.9920    3.2230    9.7130 p5        1 Y9Z      1.627800
      5 P1          5.6040    2.8810    7.8020 p5        1 Y9Z      1.622800
      6 C1          0.7690    0.8750    1.6120 cc        1 Y9Z      0.414800
      7 N1         -0.6480    0.7850    1.1440 n4        1 Y9Z     -0.781600
      8 O1          2.7290   -1.9940    7.0900 oh        1 Y9Z     -0.594800
      9 C2          2.2760    0.6090    3.2920 cd        1 Y9Z     -0.036200
     10 N2          0.9760    0.4740    2.8680 nd        1 Y9Z     -0.472100
     11 O2          1.5950   -0.5370    8.9910 oh        1 Y9Z     -0.630800
     12 C3          3.3600    1.1200    2.4690 cc        1 Y9Z      0.307800
     13 N3          4.5230    1.1670    3.1990 nc        1 Y9Z     -0.613000
     14 O3          1.8480    3.3760    8.5380 os        1 Y9Z     -0.591200
     15 C4          4.1850    0.7100    4.4480 cd        1 Y9Z      0.519400
     16 N4          2.8440    0.3340    4.5500 na        1 Y9Z     -0.151900
     17 O4          4.3240    3.0560    8.7920 os        1 Y9Z     -0.841800
     18 C5          2.0530   -0.1720    5.6700 c3        1 Y9Z      0.207800
     19 N5          5.5060    5.7850    9.4750 n4        1 Y9Z     -0.737800
     20 O5          5.2670    4.2500    6.9210 os        1 Y9Z     -0.595200
     21 C6          2.8720   -0.6060    6.9310 c3        1 Y9Z      0.120100
     22 O6          6.3330    7.7810   10.3810 o         1 Y9Z     -0.509100
     23 C7          2.3050    0.2620    8.0700 c3        1 Y9Z      0.097100
     24 O7          5.3980    1.6990    6.9510 o         1 Y9Z     -0.866500
     25 C8          1.3620    1.2790    7.3960 c3        1 Y9Z      0.071100
     26 O8          6.7520    3.3190    8.6250 o         1 Y9Z     -0.866500
     27 C9          1.9820    2.6880    7.3370 c3        1 Y9Z      0.187400
     28 O9          3.2210    4.5530   10.3470 o         1 Y9Z     -0.853500
     29 C10         6.0850    5.3600    7.0560 c3        1 Y9Z      0.191400
     30 O10         2.6840    1.9510   10.3800 o         1 Y9Z     -0.853500
     31 C11         5.5820    6.3700    8.1170 c3        1 Y9Z      0.082800
     32 O11         1.1000    0.8120    6.0600 os        1 Y9Z     -0.420600
     33 C12         5.8400    6.6750   10.6020 c         1 Y9Z      0.571100
     34 C13         5.5110    6.1200   11.9520 c3        1 Y9Z     -0.197100
     35 H1          1.4650    1.6580   -0.2120 hn        1 Y9Z      0.332500
     36 H2         -1.2340    0.4120    1.9060 hn        1 Y9Z      0.470133
     37 H3         -0.7040    0.1600    0.3350 hn        1 Y9Z      0.470133
     38 H4          2.0290   -2.1620    7.7380 ho        1 Y9Z      0.434000
     39 H5          1.7280   -0.1140    9.8590 ho        1 Y9Z      0.472000
     40 H6          4.9000    0.6800    5.3100 h5        1 Y9Z      0.180100
     41 H7          1.4550   -1.0450    5.2660 h2        1 Y9Z      0.092700
     42 H8          4.5020    5.4020    9.6590 hn        1 Y9Z      0.527300
     43 H9          3.9770   -0.4120    6.8200 h1        1 Y9Z      0.129700
     44 H10         3.1410    0.8040    8.6020 h1        1 Y9Z      0.122700
     45 H12         0.3600    1.3080    7.9020 h1        1 Y9Z      0.098700
     46 H13         1.4300    3.2810    6.5550 h1        1 Y9Z      0.042200
     47 H14         3.0710    2.6150    7.0480 h1        1 Y9Z      0.042200
     48 H15         6.0710    5.9110    6.0740 h1        1 Y9Z      0.053700
     49 H16         7.1380    5.0440    7.3040 h1        1 Y9Z      0.053700
     50 H18         4.5530    6.7250    7.8370 hx        1 Y9Z      0.083700
     51 H19         6.2860    7.2490    8.1260 hx        1 Y9Z      0.083700
     52 H20         4.4610    5.7090   11.9620 hc        1 Y9Z      0.104700
     53 H21         5.6080    6.9310   12.7140 hc        1 Y9Z      0.104700
     54 H22         6.2160    5.2880   12.2000 hc        1 Y9Z      0.104700
     55 H131       -0.9810    1.7210    0.8910 hn        1 Y9Z      0.470133
     56 H52         6.1270    4.9300    9.4960 hn        1 Y9Z      0.527300
@<TRIPOS>BOND
     1    1    2 1   
     2    1    6 1   
     3    1   35 1   
     4    2    3 2   
     5    2   12 1   
     6    4   14 1   
     7    4   17 1   
     8    4   28 1   
     9    4   30 1   
    10    5   17 1   
    11    5   20 1   
    12    5   24 1   
    13    5   26 1   
    14    6    7 1   
    15    6   10 2   
    16    7   36 1   
    17    7   37 1   
    18    7   55 1   
    19    8   21 1   
    20    8   38 1   
    21    9   10 1   
    22    9   12 2   
    23    9   16 1   
    24   11   23 1   
    25   11   39 1   
    26   12   13 1   
    27   13   15 2   
    28   14   27 1   
    29   15   16 1   
    30   15   40 1   
    31   16   18 1   
    32   18   21 1   
    33   18   32 1   
    34   18   41 1   
    35   19   31 1   
    36   19   33 1   
    37   19   42 1   
    38   19   56 1   
    39   20   29 1   
    40   21   23 1   
    41   21   43 1   
    42   22   33 2   
    43   23   25 1   
    44   23   44 1   
    45   25   27 1   
    46   25   32 1   
    47   25   45 1   
    48   27   46 1   
    49   27   47 1   
    50   29   31 1   
    51   29   48 1   
    52   29   49 1   
    53   31   50 1   
    54   31   51 1   
    55   33   34 1   
    56   34   52 1   
    57   34   53 1   
    58   34   54 1   
@<TRIPOS>SUBSTRUCTURE
     1 Y9Z         1 TEMP              0 ****  ****    0 ROOT
