@<TRIPOS>MOLECULE
molecule
   55    57     1     0     0
SMALL
bcc


@<TRIPOS>ATOM
      1 N            0.0000     0.0000     0.0000 ns         1 Y9Z      -0.474400
      2 C            1.3520     0.0000     0.0000 c          1 Y9Z       0.631000
      3 O            1.9770     0.0020    -1.0470 o          1 Y9Z      -0.559500
      4 P            5.7190     1.9700     8.8060 p5         1 Y9Z       1.430800
      5 P1           7.0940     4.5900     8.9830 p5         1 Y9Z       1.449800
      6 C1          -0.6890    -0.0020     1.1760 cc         1 Y9Z       0.379800
      7 N1          -2.0600     0.0030     1.1460 nz         1 Y9Z      -0.710600
      8 O1           0.2710    -1.7650     5.4760 oh         1 Y9Z      -0.586800
      9 C2           1.2600    -0.0130     2.4180 cd         1 Y9Z       0.015800
     10 N2          -0.0760    -0.0090     2.3390 nd         1 Y9Z      -0.525100
     11 O2           1.2700    -1.6760     7.8180 oh         1 Y9Z      -0.576800
     12 C3           2.0230     0.0000     1.2440 cc         1 Y9Z       0.297800
     13 N3           3.3280     0.0020     1.6140 nc         1 Y9Z      -0.631000
     14 O3           4.3930     1.5300     8.0080 os         1 Y9Z      -0.595200
     15 C4           3.4080     0.0010     2.9130 cd         1 Y9Z       0.532400
     16 N4           2.1550    -0.0020     3.4530 na         1 Y9Z      -0.148900
     17 O4           5.8660     3.5720     8.7630 os         1 Y9Z      -0.717800
     18 C5           1.8270     0.0230     4.8800 c3         1 Y9Z       0.230800
     19 N5           5.6570     8.1650    11.1050 ns         1 Y9Z      -0.557900
     20 O5           6.5230     6.0560     9.3230 os         1 Y9Z      -0.615200
     21 C6           1.6550    -1.4160     5.4180 c3         1 Y9Z       0.076100
     22 O6           4.7470    10.1810    10.9270 o          1 Y9Z      -0.653100
     23 C7           2.2610    -1.3610     6.8380 c3         1 Y9Z       0.090100
     24 O7           7.9810     4.6560     7.6410 o          1 Y9Z      -0.810000
     25 C8           2.7280     0.1030     6.9920 c3         1 Y9Z       0.121100
     26 O8           7.9330     4.1140    10.1060 o          1 Y9Z      -0.810000
     27 C9           4.0390     0.1650     7.7770 c3         1 Y9Z       0.240400
     28 O9           5.6110     1.4810    10.3370 o          1 Y9Z      -0.825000
     29 C10          7.3640     7.1570     9.6710 c3         1 Y9Z       0.210400
     30 O10          6.9040     1.3480     8.1740 o          1 Y9Z      -0.825000
     31 C11          6.5030     8.3950     9.9300 c3         1 Y9Z       0.101000
     32 O11          2.9270     0.5700     5.6400 os         1 Y9Z      -0.370600
     33 C12          4.8090     9.1260    11.5230 c          1 Y9Z       0.650100
     34 C13          3.9400     8.8890    12.7300 c3         1 Y9Z      -0.174100
     35 H1          -0.4980     0.0020    -0.8680 hn         1 Y9Z       0.332500
     36 H2          -2.3880    -0.8530     0.7420 hn         1 Y9Z       0.464133
     37 H3          -2.4140     0.0890     2.0780 hn         1 Y9Z       0.464133
     38 H4           0.1750    -2.6930     5.3410 ho         1 Y9Z       0.402000
     39 H5           1.5150    -2.4660     8.2700 ho         1 Y9Z       0.406000
     40 H6           4.3310     0.0030     3.4800 h5         1 Y9Z       0.132100
     41 H7           0.9270     0.5990     5.0560 h2         1 Y9Z       0.101700
     42 H8           5.7330     7.3070    11.6150 hn         1 Y9Z       0.334500
     43 H9           2.2040    -2.1170     4.8010 h1         1 Y9Z       0.046700
     44 H10          3.1050    -2.0360     6.9140 h1         1 Y9Z       0.064700
     45 H12          1.9610     0.6910     7.4810 h1         1 Y9Z       0.090700
     46 H13          4.8230    -0.3190     7.2080 h1         1 Y9Z       0.045200
     47 H14          3.9160    -0.3420     8.7260 h1         1 Y9Z       0.045200
     48 H15          8.0510     7.3590     8.8580 h1         1 Y9Z       0.036200
     49 H16          7.9260     6.9140    10.5650 h1         1 Y9Z       0.036200
     50 H18          7.1440     9.2500    10.1090 h1         1 Y9Z       0.042700
     51 H19          5.8770     8.5870     9.0670 h1         1 Y9Z       0.042700
     52 H20          3.3770     9.7880    12.9520 hc         1 Y9Z       0.052033
     53 H21          3.2550     8.0750    12.5270 hc         1 Y9Z       0.052033
     54 H22          4.5620     8.6340    13.5790 hc         1 Y9Z       0.052033
     55 H131        -2.3790     0.7720     0.5900 hn         1 Y9Z       0.464133
@<TRIPOS>BOND
     1     3     2 2
     2     2     1 1
     3     2    12 1
     4     1     6 1
     5    12    13 1
     6    12     9 2
     7    13    15 2
     8     6     7 1
     9     6    10 2
    10    15    16 1
    11     9    10 1
    12     9    16 1
    13     8    21 1
    14    28     4 1
    15    16    18 1
    16    21    18 1
    17    21    23 1
    18    18    32 1
    19     4    14 1
    20     4    30 1
    21     4    17 1
    22    14    27 1
    23    26     5 1
    24    23    11 1
    25    23    25 1
    26    32    25 1
    27    17     5 1
    28     5    24 1
    29     5    20 1
    30    25    27 1
    31    31    29 1
    32    31    19 1
    33    20    29 1
    34    19    33 1
    35    22    33 2
    36    33    34 1
    37     1    35 1
    38     7    36 1
    39     7    37 1
    40     8    38 1
    41    11    39 1
    42    15    40 1
    43    18    41 1
    44    19    42 1
    45    21    43 1
    46    23    44 1
    47    25    45 1
    48    27    46 1
    49    27    47 1
    50    29    48 1
    51    29    49 1
    52    31    50 1
    53    31    51 1
    54    34    52 1
    55    34    53 1
    56    34    54 1
    57    55     7 1
@<TRIPOS>SUBSTRUCTURE
     1 Y9Z         1 TEMP              0 ****  ****    0 ROOT
