@<TRIPOS>MOLECULE
molecule
   86    88     1     0     0
SMALL
bcc


@<TRIPOS>ATOM
      1 O2           0.0000     0.0000     0.0000 oh         1 YA1      -0.602800
      2 C3           1.4280     0.0000     0.0000 c3         1 YA1       0.193800
      3 C2           1.9360     0.0000     1.4240 c2         1 YA1      -0.154400
      4 C9           1.1020     0.0990     2.4290 c2         1 YA1      -0.194000
      5 C1           3.4240    -0.1150     1.6670 c3         1 YA1       0.193800
      6 O1           4.0870     1.0340     1.1350 oh         1 YA1      -0.602800
      7 C6           3.9380    -1.3770     0.9630 c3         1 YA1      -0.048200
      8 C4           1.9430    -1.2620    -0.7040 c3         1 YA1      -0.048200
      9 C5           3.4310    -1.3780    -0.4600 c2         1 YA1      -0.112400
     10 C10          4.2770    -1.4760    -1.4800 ce         1 YA1      -0.130000
     11 C11          3.7630    -1.6110    -2.8520 ce         1 YA1      -0.155000
     12 C12          4.6040    -1.8140    -3.8600 c2         1 YA1      -0.094400
     13 C13          6.1090    -1.9170    -3.6570 c3         1 YA1      -0.043200
     14 C14          6.6620    -3.1650    -4.3420 c3         1 YA1      -0.079400
     15 C15          6.1590    -3.2920    -5.7900 c3         1 YA1      -0.064400
     16 C17          4.1380    -1.9640    -5.2780 c3         1 YA1      -0.034500
     17 C16          4.6500    -3.3510    -5.7450 c3         1 YA1      -0.061000
     18 C23          4.2210    -4.4130    -4.7290 c3         1 YA1      -0.091100
     19 C18          2.6300    -2.1030    -5.4950 c3         1 YA1      -0.078400
     20 C19          2.5460    -2.8340    -6.8640 c3         1 YA1      -0.081400
     21 C20          3.8940    -3.5800    -7.0440 c3         1 YA1      -0.056700
     22 C21          3.6470    -5.0760    -7.2580 c3         1 YA1      -0.068700
     23 C22          4.9850    -5.7870    -7.4710 c3         1 YA1      -0.093100
     24 C24          2.7610    -5.2750    -8.4890 c3         1 YA1      -0.072700
     25 C31          2.4050    -6.7570    -8.6260 c3         1 YA1      -0.083400
     26 C32          1.5430    -7.1870    -7.4390 c3         1 YA1      -0.084400
     27 C33          1.2840    -8.6930    -7.5160 c3         1 YA1      -0.084400
     28 C34          0.4220    -9.1240    -6.3270 c3         1 YA1      -0.092100
     29 C25          3.5120    -4.8120    -9.7380 c3         1 YA1      -0.077400
     30 C26          2.5830    -4.8940   -10.9510 c3         1 YA1      -0.068400
     31 C27          3.3340    -4.4310   -12.2010 c3         1 YA1       0.146800
     32 C29          4.5510    -5.3310   -12.4290 c3         1 YA1      -0.120100
     33 C28          2.4060    -4.5140   -13.4150 c3         1 YA1      -0.120100
     34 O3           3.7680    -3.0810   -12.0240 oh         1 YA1      -0.604800
     35 H1          -0.3140     0.6960    -0.5520 ho         1 YA1       0.401000
     36 H2           1.7970     0.8780    -0.5160 h1         1 YA1       0.046200
     37 H3           0.0380     0.1810     2.2440 ha         1 YA1       0.121000
     38 H4           1.4770     0.0980     3.4450 ha         1 YA1       0.121000
     39 H5           3.6130    -0.1900     2.7310 h1         1 YA1       0.046200
     40 H6           4.5100     1.5040     1.8350 ho         1 YA1       0.401000
     41 H7           5.0220    -1.3760     0.9620 hc         1 YA1       0.058450
     42 H8           3.5700    -2.2560     1.4800 hc         1 YA1       0.058450
     43 H9           1.7540    -1.1870    -1.7680 hc         1 YA1       0.058450
     44 H10          1.4400    -2.1330    -0.3000 hc         1 YA1       0.058450
     45 H11          5.3410    -1.5570    -1.2930 ha         1 YA1       0.131000
     46 H12          2.6980    -1.5440    -3.0400 ha         1 YA1       0.135000
     47 H13          6.5850    -1.0400    -4.0790 hc         1 YA1       0.050200
     48 H14          6.3220    -1.9700    -2.5970 hc         1 YA1       0.050200
     49 H15          7.7440    -3.1120    -4.3500 hc         1 YA1       0.042200
     50 H16          6.3500    -4.0400    -3.7840 hc         1 YA1       0.042200
     51 H17          6.4750    -2.4300    -6.3650 hc         1 YA1       0.045200
     52 H18          6.5480    -4.2000    -6.2340 hc         1 YA1       0.045200
     53 H19          4.5460    -1.1790    -5.9020 hc         1 YA1       0.067700
     54 H20          4.4240    -4.0570    -3.7270 hc         1 YA1       0.039367
     55 H21          3.1600    -4.6070    -4.8360 hc         1 YA1       0.039367
     56 H22          4.7750    -5.3270    -4.9070 hc         1 YA1       0.039367
     57 H23          2.1850    -2.7050    -4.7120 hc         1 YA1       0.046700
     58 H24          2.1620    -1.1280    -5.5520 hc         1 YA1       0.046700
     59 H25          1.7270    -3.5430    -6.8560 hc         1 YA1       0.045700
     60 H26          2.4130    -2.1120    -7.6620 hc         1 YA1       0.045700
     61 H27          4.4460    -3.1610    -7.8760 hc         1 YA1       0.060700
     62 H28          3.1520    -5.4880    -6.3870 hc         1 YA1       0.062700
     63 H29          4.8180    -6.7190    -7.9990 hc         1 YA1       0.035700
     64 H30          5.6420    -5.1540    -8.0540 hc         1 YA1       0.035700
     65 H31          5.4410    -5.9940    -6.5100 hc         1 YA1       0.035700
     66 H32          1.8530    -4.6940    -8.3780 hc         1 YA1       0.054700
     67 H33          3.3140    -7.3460    -8.6450 hc         1 YA1       0.042700
     68 H34          1.8550    -6.9120    -9.5470 hc         1 YA1       0.042700
     69 H35          0.5990    -6.6570    -7.4670 hc         1 YA1       0.043200
     70 H36          2.0590    -6.9570    -6.5150 hc         1 YA1       0.043200
     71 H37          2.2280    -9.2240    -7.4890 hc         1 YA1       0.039200
     72 H38          0.7670    -8.9240    -8.4390 hc         1 YA1       0.039200
     73 H39          0.1940   -10.1800    -6.4110 hc         1 YA1       0.032367
     74 H40         -0.4990    -8.5550    -6.3240 hc         1 YA1       0.032367
     75 H41          0.9620    -8.9430    -5.4050 hc         1 YA1       0.032367
     76 H42          3.8400    -3.7880    -9.6040 hc         1 YA1       0.053700
     77 H43          4.3730    -5.4490    -9.8990 hc         1 YA1       0.053700
     78 H44          1.7220    -4.2570   -10.7910 hc         1 YA1       0.049200
     79 H45          2.2550    -5.9180   -11.0860 hc         1 YA1       0.049200
     80 H46          4.2960    -6.3540   -12.1770 hc         1 YA1       0.041367
     81 H47          5.3680    -4.9980   -11.8010 hc         1 YA1       0.041367
     82 H48          4.8490    -5.2790   -13.4690 hc         1 YA1       0.041367
     83 H49          1.5560    -3.8590   -13.2640 hc         1 YA1       0.041367
     84 H50          2.0590    -5.5330   -13.5360 hc         1 YA1       0.041367
     85 H51          2.9440    -4.2080   -14.3030 hc         1 YA1       0.041367
     86 H52          3.9440    -2.6940   -12.8650 ho         1 YA1       0.400000
@<TRIPOS>BOND
     1     4     3 2
     2     6     5 1
     3     3     5 1
     4     3     2 1
     5     5     7 1
     6     2     8 1
     7     2     1 1
     8     7     9 1
     9     8     9 1
    10     9    10 2
    11    28    27 1
    12    10    11 1
    13    18    17 1
    14    11    12 2
    15    27    26 1
    16    26    25 1
    17    12    13 1
    18    12    16 1
    19    14    13 1
    20    14    15 1
    21    17    16 1
    22    17    15 1
    23    17    21 1
    24    19    16 1
    25    19    20 1
    26    23    22 1
    27    22    21 1
    28    22    24 1
    29    20    21 1
    30    25    24 1
    31    24    29 1
    32    29    30 1
    33    30    31 1
    34    31    32 1
    35    31    33 1
    36    31    34 1
    37     1    35 1
    38     2    36 1
    39     4    37 1
    40     4    38 1
    41     5    39 1
    42     6    40 1
    43     7    41 1
    44     7    42 1
    45     8    43 1
    46     8    44 1
    47    10    45 1
    48    11    46 1
    49    13    47 1
    50    13    48 1
    51    14    49 1
    52    14    50 1
    53    15    51 1
    54    15    52 1
    55    16    53 1
    56    18    54 1
    57    18    55 1
    58    18    56 1
    59    19    57 1
    60    19    58 1
    61    20    59 1
    62    20    60 1
    63    21    61 1
    64    22    62 1
    65    23    63 1
    66    23    64 1
    67    23    65 1
    68    24    66 1
    69    25    67 1
    70    25    68 1
    71    26    69 1
    72    26    70 1
    73    27    71 1
    74    27    72 1
    75    28    73 1
    76    28    74 1
    77    28    75 1
    78    29    76 1
    79    29    77 1
    80    30    78 1
    81    30    79 1
    82    32    80 1
    83    32    81 1
    84    32    82 1
    85    33    83 1
    86    33    84 1
    87    33    85 1
    88    34    86 1
@<TRIPOS>SUBSTRUCTURE
     1 YA1         1 TEMP              0 ****  ****    0 ROOT
