@<TRIPOS>MOLECULE
YA1
   86    88     1     0     0
SMALL
bcc


@<TRIPOS>ATOM
      1 O2          0.3810    1.1220   -0.2070 oh        1 YA1     -0.594300
      2 C3          1.7430    0.7780    0.0070 c3        1 YA1      0.183800
      3 C2          2.1820    0.9590    1.4300 c2        1 YA1     -0.193400
      4 C9          1.4040    1.4410    2.4000 c2        1 YA1     -0.199000
      5 C1          3.5980    0.5190    1.6810 c3        1 YA1      0.183800
      6 O1          4.5400    1.3660    1.0290 oh        1 YA1     -0.594300
      7 C6          3.8430   -0.9020    1.1670 c3        1 YA1     -0.034200
      8 C4          1.8860   -0.6890   -0.4090 c3        1 YA1     -0.034200
      9 C5          3.2780   -1.1620   -0.1880 c2        1 YA1     -0.109400
     10 C10         4.0020   -1.8190   -1.1130 ce        1 YA1     -0.120000
     11 C11         3.5300   -2.1940   -2.4290 ce        1 YA1     -0.151000
     12 C12         4.2940   -2.2830   -3.5300 c2        1 YA1     -0.076400
     13 C13         5.7420   -1.9170   -3.5920 c3        1 YA1     -0.045200
     14 C14         6.5950   -2.9250   -4.3430 c3        1 YA1     -0.073400
     15 C15         5.9920   -3.3980   -5.6550 c3        1 YA1     -0.067400
     16 C17         3.7670   -2.6750   -4.8630 c3        1 YA1     -0.037500
     17 C16         4.5620   -3.8750   -5.4520 c3        1 YA1     -0.040000
     18 C23         4.5210   -5.0690   -4.5130 c3        1 YA1     -0.082100
     19 C18         2.3110   -3.0800   -5.0420 c3        1 YA1     -0.073400
     20 C19         2.2960   -3.8930   -6.3380 c3        1 YA1     -0.079400
     21 C20         3.7610   -4.1610   -6.7440 c3        1 YA1     -0.055700
     22 C21         3.9370   -5.5430   -7.3670 c3        1 YA1     -0.050700
     23 C22         5.3860   -5.8290   -7.7090 c3        1 YA1     -0.090100
     24 C24         3.0430   -5.7020   -8.6100 c3        1 YA1     -0.062700
     25 C31         2.7330   -7.1750   -8.8620 c3        1 YA1     -0.078400
     26 C32         1.5940   -7.6730   -7.9980 c3        1 YA1     -0.080400
     27 C33         1.3510   -9.1520   -8.2090 c3        1 YA1     -0.080400
     28 C34         0.2060   -9.6510   -7.3650 c3        1 YA1     -0.093100
     29 C25         3.6720   -5.0620   -9.8410 c3        1 YA1     -0.075400
     30 C26         2.6450   -4.7440  -10.9060 c3        1 YA1     -0.064400
     31 C27         3.2290   -3.9390  -12.0720 c3        1 YA1      0.147800
     32 C29         4.4000   -4.6610  -12.7280 c3        1 YA1     -0.123100
     33 C28         2.1380   -3.6780  -13.1070 c3        1 YA1     -0.123100
     34 O3          3.6700   -2.6990  -11.5170 oh        1 YA1     -0.597800
     35 H1          0.3020    2.0660   -0.0250 ho        1 YA1      0.399500
     36 H2          2.4020    1.4210   -0.6480 h1        1 YA1      0.044700
     37 H3          0.3580    1.7280    2.2250 ha        1 YA1      0.119500
     38 H4          1.7560    1.5630    3.4330 ha        1 YA1      0.119500
     39 H5          3.8140    0.5440    2.7900 h1        1 YA1      0.044700
     40 H6          4.3000    2.2730    1.2510 ho        1 YA1      0.399500
     41 H7          4.9510   -1.0850    1.1740 hc        1 YA1      0.062450
     42 H8          3.3670   -1.6140    1.8940 hc        1 YA1      0.062450
     43 H9          1.1740   -1.3130    0.1950 hc        1 YA1      0.062450
     44 H10         1.5830   -0.7770   -1.4850 hc        1 YA1      0.062450
     45 H11         5.0350   -2.1250   -0.8680 ha        1 YA1      0.124000
     46 H12         2.4530   -2.4330   -2.4990 ha        1 YA1      0.127000
     47 H13         6.1650   -1.7870   -2.5610 hc        1 YA1      0.049200
     48 H14         5.8160   -0.9190   -4.1060 hc        1 YA1      0.049200
     49 H15         6.7740   -3.8160   -3.6830 hc        1 YA1      0.039200
     50 H16         7.5960   -2.4610   -4.5500 hc        1 YA1      0.039200
     51 H17         6.6250   -4.2240   -6.0700 hc        1 YA1      0.042700
     52 H18         6.0030   -2.5600   -6.4010 hc        1 YA1      0.042700
     53 H19         3.9460   -1.7880   -5.5440 hc        1 YA1      0.056700
     54 H20         3.4900   -5.4960   -4.4720 hc        1 YA1      0.036700
     55 H21         5.2250   -5.8640   -4.8570 hc        1 YA1      0.036700
     56 H22         4.8110   -4.7630   -3.4780 hc        1 YA1      0.036700
     57 H23         1.6450   -2.1870   -5.1090 hc        1 YA1      0.044200
     58 H24         1.9590   -3.7070   -4.1840 hc        1 YA1      0.044200
     59 H25         1.7730   -3.3280   -7.1480 hc        1 YA1      0.042700
     60 H26         1.7500   -4.8560   -6.1810 hc        1 YA1      0.042700
     61 H27         4.0680   -3.3950   -7.5090 hc        1 YA1      0.053700
     62 H28         3.5990   -6.3090   -6.6110 hc        1 YA1      0.049700
     63 H29         5.9660   -6.0710   -6.7860 hc        1 YA1      0.034033
     64 H30         5.8600   -4.9490   -8.2060 hc        1 YA1      0.034033
     65 H31         5.4600   -6.7050   -8.3990 hc        1 YA1      0.034033
     66 H32         2.0650   -5.1780   -8.4110 hc        1 YA1      0.051700
     67 H33         3.6480   -7.7950   -8.6710 hc        1 YA1      0.039700
     68 H34         2.4590   -7.3190   -9.9410 hc        1 YA1      0.039700
     69 H35         0.6590   -7.1020   -8.2420 hc        1 YA1      0.040200
     70 H36         1.8210   -7.4810   -6.9160 hc        1 YA1      0.040200
     71 H37         1.1330   -9.3440   -9.2930 hc        1 YA1      0.037700
     72 H38         2.2830   -9.7240   -7.9550 hc        1 YA1      0.037700
     73 H39        -0.7370   -9.1120   -7.6220 hc        1 YA1      0.032367
     74 H40         0.4170   -9.4900   -6.2800 hc        1 YA1      0.032367
     75 H41         0.0460  -10.7430   -7.5350 hc        1 YA1      0.032367
     76 H42         4.4540   -5.7480  -10.2610 hc        1 YA1      0.050200
     77 H43         4.1850   -4.1070   -9.5480 hc        1 YA1      0.050200
     78 H44         2.2070   -5.6880  -11.3220 hc        1 YA1      0.047200
     79 H45         1.8110   -4.1440  -10.4540 hc        1 YA1      0.047200
     80 H46         4.1120   -5.7080  -12.9780 hc        1 YA1      0.042200
     81 H47         4.7030   -4.1360  -13.6660 hc        1 YA1      0.042200
     82 H48         5.2750   -4.6780  -12.0340 hc        1 YA1      0.042200
     83 H49         1.7610   -4.6440  -13.5170 hc        1 YA1      0.042200
     84 H50         2.5400   -3.0630  -13.9470 hc        1 YA1      0.042200
     85 H51         1.2910   -3.1250  -12.6360 hc        1 YA1      0.042200
     86 H52         4.0360   -2.1840  -12.2450 ho        1 YA1      0.396000
@<TRIPOS>BOND
     1    1    2 1   
     2    1   35 1   
     3    2    3 1   
     4    2    8 1   
     5    2   36 1   
     6    3    4 2   
     7    3    5 1   
     8    4   37 1   
     9    4   38 1   
    10    5    6 1   
    11    5    7 1   
    12    5   39 1   
    13    6   40 1   
    14    7    9 1   
    15    7   41 1   
    16    7   42 1   
    17    8    9 1   
    18    8   43 1   
    19    8   44 1   
    20    9   10 2   
    21   10   11 1   
    22   10   45 1   
    23   11   12 2   
    24   11   46 1   
    25   12   13 1   
    26   12   16 1   
    27   13   14 1   
    28   13   47 1   
    29   13   48 1   
    30   14   15 1   
    31   14   49 1   
    32   14   50 1   
    33   15   17 1   
    34   15   51 1   
    35   15   52 1   
    36   16   17 1   
    37   16   19 1   
    38   16   53 1   
    39   17   18 1   
    40   17   21 1   
    41   18   54 1   
    42   18   55 1   
    43   18   56 1   
    44   19   20 1   
    45   19   57 1   
    46   19   58 1   
    47   20   21 1   
    48   20   59 1   
    49   20   60 1   
    50   21   22 1   
    51   21   61 1   
    52   22   23 1   
    53   22   24 1   
    54   22   62 1   
    55   23   63 1   
    56   23   64 1   
    57   23   65 1   
    58   24   25 1   
    59   24   29 1   
    60   24   66 1   
    61   25   26 1   
    62   25   67 1   
    63   25   68 1   
    64   26   27 1   
    65   26   69 1   
    66   26   70 1   
    67   27   28 1   
    68   27   71 1   
    69   27   72 1   
    70   28   73 1   
    71   28   74 1   
    72   28   75 1   
    73   29   30 1   
    74   29   76 1   
    75   29   77 1   
    76   30   31 1   
    77   30   78 1   
    78   30   79 1   
    79   31   32 1   
    80   31   33 1   
    81   31   34 1   
    82   32   80 1   
    83   32   81 1   
    84   32   82 1   
    85   33   83 1   
    86   33   84 1   
    87   33   85 1   
    88   34   86 1   
@<TRIPOS>SUBSTRUCTURE
     1 YA1         1 TEMP              0 ****  ****    0 ROOT
