@<TRIPOS>MOLECULE
molecule
   89    91     1     0     0
SMALL
bcc


@<TRIPOS>ATOM
      1 O31          0.0000     0.0000     0.0000 oh         1 YA2      -0.602800
      2 C26          1.4290     0.0000     0.0000 c3         1 YA2       0.153800
      3 C29          1.9390     0.0000     1.4420 c3         1 YA2      -0.115900
      4 C30          3.4690     0.0300     1.4430 c3         1 YA2      -0.094100
      5 C27          1.9400    -1.2490    -0.7210 c3         1 YA2      -0.115900
      6 C28          1.4120    -2.4980    -0.0130 c3         1 YA2      -0.094100
      7 C25          1.9390     1.2500    -0.7210 c3         1 YA2      -0.070400
      8 C20          1.3570     2.4970    -0.0530 c3         1 YA2      -0.069700
      9 C21          2.2330     2.8940     1.1370 c3         1 YA2      -0.102400
     10 C22          1.5940     4.0750     1.8700 c3         1 YA2      -0.084400
     11 C23          2.5190     4.5380     2.9970 c3         1 YA2      -0.084400
     12 C24          1.8790     5.7190     3.7290 c3         1 YA2      -0.092100
     13 C18          1.3170     3.6450    -1.0630 c3         1 YA2      -0.069700
     14 C19          2.7110     3.8460    -1.6620 c3         1 YA2      -0.094100
     15 C17          0.3270     3.3080    -2.1800 c3         1 YA2      -0.053700
     16 C16         -1.0810     3.0400    -1.5870 c3         1 YA2      -0.078400
     17 C15         -2.0450     4.0420    -2.2830 c3         1 YA2      -0.080400
     18 C13          0.1480     4.5020    -3.1050 c3         1 YA2      -0.061000
     19 C14         -1.3210     4.3530    -3.5950 c3         1 YA2      -0.034500
     20 C35          0.2790     5.7920    -2.2930 c3         1 YA2      -0.090100
     21 C12          1.0290     4.6030    -4.3280 c3         1 YA2      -0.065400
     22 C11          0.7170     5.9440    -5.0140 c3         1 YA2      -0.079400
     23 C10         -0.7520     6.0460    -5.4170 c3         1 YA2      -0.043200
     24 C9          -1.6590     5.6550    -4.2570 c2         1 YA2      -0.093400
     25 C8          -2.6740     6.4140    -3.8620 ce         1 YA2      -0.154000
     26 C7          -2.9580     7.6830    -4.5500 ce         1 YA2      -0.131000
     27 C1          -4.0310     8.3930    -4.2190 c2         1 YA2      -0.113400
     28 C2          -4.4010     9.6350    -4.9980 c3         1 YA2      -0.048700
     29 C6          -4.9060     7.9710    -3.0610 c3         1 YA2      -0.048700
     30 C5          -6.3470     7.8270    -3.5660 c3         1 YA2       0.194300
     31 O33         -7.2320     7.6710    -2.4540 oh         1 YA2      -0.603300
     32 C4          -6.7140     9.0720    -4.3400 c2         1 YA2      -0.153400
     33 C32         -7.7730     9.7720    -4.0140 c2         1 YA2      -0.193000
     34 C3          -5.8440     9.4870    -5.4980 c3         1 YA2       0.194300
     35 O34         -5.9030     8.4930    -6.5220 oh         1 YA2      -0.603300
     36 H1          -0.3140    -0.4740     0.7520 ho         1 YA2       0.401000
     37 H2           1.5950    -0.8950     1.9460 hc         1 YA2       0.052200
     38 H3           1.5600     0.8730     1.9590 hc         1 YA2       0.052200
     39 H4           3.8250     0.3370     0.4670 hc         1 YA2       0.036033
     40 H5           3.8500    -0.9580     1.6730 hc         1 YA2       0.036033
     41 H6           3.8160     0.7330     2.1910 hc         1 YA2       0.036033
     42 H7           1.5910    -1.2420    -1.7470 hc         1 YA2       0.052200
     43 H8           3.0230    -1.2570    -0.7080 hc         1 YA2       0.052200
     44 H9           1.9530    -2.6440     0.9140 hc         1 YA2       0.036033
     45 H10          0.3570    -2.3740     0.2010 hc         1 YA2       0.036033
     46 H11          1.5520    -3.3620    -0.6520 hc         1 YA2       0.036033
     47 H12          3.0210     1.2820    -0.6660 hc         1 YA2       0.055200
     48 H13          1.6310     1.2190    -1.7590 hc         1 YA2       0.055200
     49 H14          0.3520     2.2850     0.2930 hc         1 YA2       0.072700
     50 H15          2.3240     2.0540     1.8150 hc         1 YA2       0.050200
     51 H16          3.2160     3.1790     0.7820 hc         1 YA2       0.050200
     52 H17          0.6420     3.7680     2.2870 hc         1 YA2       0.042700
     53 H18          1.4370     4.8900     1.1740 hc         1 YA2       0.042700
     54 H19          3.4710     4.8440     2.5800 hc         1 YA2       0.038200
     55 H20          2.6760     3.7230     3.6930 hc         1 YA2       0.038200
     56 H21          2.5160     6.0210     4.5530 hc         1 YA2       0.032367
     57 H22          1.7600     6.5480     3.0430 hc         1 YA2       0.032367
     58 H23          0.9100     5.4240     4.1120 hc         1 YA2       0.032367
     59 H24          1.0040     4.5540    -0.5650 hc         1 YA2       0.064700
     60 H25          2.7570     3.3760    -2.6370 hc         1 YA2       0.034367
     61 H26          3.4520     3.3980    -1.0110 hc         1 YA2       0.034367
     62 H27          2.9120     4.9060    -1.7620 hc         1 YA2       0.034367
     63 H28          0.6660     2.4470    -2.7430 hc         1 YA2       0.056700
     64 H29         -1.3860     2.0230    -1.8010 hc         1 YA2       0.050700
     65 H30         -1.0730     3.2150    -0.5180 hc         1 YA2       0.050700
     66 H31         -3.0040     3.5770    -2.4770 hc         1 YA2       0.045700
     67 H32         -2.1590     4.9400    -1.6870 hc         1 YA2       0.045700
     68 H33         -1.4110     3.5280    -4.2910 hc         1 YA2       0.066700
     69 H34          1.3260     6.0540    -2.1980 hc         1 YA2       0.039367
     70 H35         -0.1470     5.6440    -1.3080 hc         1 YA2       0.039367
     71 H36         -0.2490     6.5920    -2.7980 hc         1 YA2       0.039367
     72 H37          0.8120     3.7860    -5.0060 hc         1 YA2       0.043700
     73 H38          2.0710     4.5760    -4.0330 hc         1 YA2       0.043700
     74 H39          0.9510     6.7510    -4.3300 hc         1 YA2       0.042200
     75 H40          1.3320     6.0370    -5.9010 hc         1 YA2       0.042200
     76 H41         -0.9390     5.3830    -6.2530 hc         1 YA2       0.049200
     77 H42         -0.9700     7.0660    -5.7100 hc         1 YA2       0.049200
     78 H43         -3.3240     6.0750    -3.0640 ha         1 YA2       0.135000
     79 H44         -2.3410     7.9930    -5.3850 ha         1 YA2       0.131000
     80 H45         -3.7330     9.7450    -5.8440 hc         1 YA2       0.058200
     81 H46         -4.3270    10.5030    -4.3540 hc         1 YA2       0.058200
     82 H47         -4.5610     7.0200    -2.6730 hc         1 YA2       0.058200
     83 H48         -4.8670     8.7240    -2.2840 hc         1 YA2       0.058200
     84 H49         -6.4180     6.9630    -4.2150 h1         1 YA2       0.046200
     85 H50         -7.5840     6.7970    -2.4520 ho         1 YA2       0.401500
     86 H51         -8.0290    10.6610    -4.5770 ha         1 YA2       0.121000
     87 H52         -8.3940     9.4600    -3.1830 ha         1 YA2       0.121000
     88 H53         -6.1900    10.4370    -5.8870 h1         1 YA2       0.046200
     89 H54         -6.2660     8.8700    -7.3060 ho         1 YA2       0.401500
@<TRIPOS>BOND
     1    33    32 2
     2    31    30 1
     3    32    30 1
     4    32    34 1
     5    30    29 1
     6    34    28 1
     7    34    35 1
     8    29    27 1
     9    28    27 1
    10    27    26 2
    11     6     5 1
    12     4     3 1
    13     3     2 1
    14    26    25 1
    15    25    24 2
    16    20    18 1
    17     5     2 1
    18     2     7 1
    19     2     1 1
    20     7     8 1
    21    17    16 1
    22    17    19 1
    23    24    19 1
    24    24    23 1
    25    16    15 1
    26    13    15 1
    27    13     8 1
    28    13    14 1
    29    18    19 1
    30    18    15 1
    31    18    21 1
    32    23    22 1
    33    22    21 1
    34     8     9 1
    35     9    10 1
    36    10    11 1
    37    11    12 1
    38     1    36 1
    39     3    37 1
    40     3    38 1
    41     4    39 1
    42     4    40 1
    43     4    41 1
    44     5    42 1
    45     5    43 1
    46     6    44 1
    47     6    45 1
    48     6    46 1
    49     7    47 1
    50     7    48 1
    51     8    49 1
    52     9    50 1
    53     9    51 1
    54    10    52 1
    55    10    53 1
    56    11    54 1
    57    11    55 1
    58    12    56 1
    59    12    57 1
    60    12    58 1
    61    13    59 1
    62    14    60 1
    63    14    61 1
    64    14    62 1
    65    15    63 1
    66    16    64 1
    67    16    65 1
    68    17    66 1
    69    17    67 1
    70    19    68 1
    71    20    69 1
    72    20    70 1
    73    20    71 1
    74    21    72 1
    75    21    73 1
    76    22    74 1
    77    22    75 1
    78    23    76 1
    79    23    77 1
    80    25    78 1
    81    26    79 1
    82    28    80 1
    83    28    81 1
    84    29    82 1
    85    29    83 1
    86    30    84 1
    87    31    85 1
    88    33    86 1
    89    33    87 1
    90    34    88 1
    91    35    89 1
@<TRIPOS>SUBSTRUCTURE
     1 YA2         1 TEMP              0 ****  ****    0 ROOT
