@<TRIPOS>MOLECULE
YA2
   89    91     1     0     0
SMALL
bcc


@<TRIPOS>ATOM
      1 O31        -0.0370    0.5290   -0.2610 oh        1 YA2     -0.601800
      2 C26         1.3230    0.1230   -0.0740 c3        1 YA2      0.152800
      3 C29         1.5620   -0.1310    1.4180 c3        1 YA2     -0.107900
      4 C30         2.9110   -0.7170    1.7390 c3        1 YA2     -0.093100
      5 C27         1.6090   -1.1240   -0.9240 c3        1 YA2     -0.107900
      6 C28         0.8160   -2.3390   -0.5250 c3        1 YA2     -0.093100
      7 C25         2.1730    1.2840   -0.6220 c3        1 YA2     -0.061400
      8 C20         1.8770    2.6340    0.0200 c3        1 YA2     -0.062700
      9 C21         2.8860    2.9630    1.1180 c3        1 YA2     -0.082400
     10 C22         2.2740    3.8260    2.2020 c3        1 YA2     -0.080400
     11 C23         3.3080    4.2310    3.2310 c3        1 YA2     -0.080400
     12 C24         2.7010    5.0710    4.3250 c3        1 YA2     -0.092100
     13 C18         1.8360    3.7690   -1.0180 c3        1 YA2     -0.049700
     14 C19         3.0350    3.7040   -1.9460 c3        1 YA2     -0.090100
     15 C17         0.5230    3.7540   -1.7940 c3        1 YA2     -0.052700
     16 C16        -0.7060    3.8490   -0.8660 c3        1 YA2     -0.081400
     17 C15        -1.7740    4.6700   -1.5900 c3        1 YA2     -0.073400
     18 C13         0.3070    4.8980   -2.8130 c3        1 YA2     -0.042000
     19 C14        -1.2350    4.8400   -3.0030 c3        1 YA2     -0.037500
     20 C35         0.7390    6.2310   -2.2270 c3        1 YA2     -0.082100
     21 C12         0.9310    4.6900   -4.1840 c3        1 YA2     -0.067400
     22 C11         0.4520    5.7470   -5.1640 c3        1 YA2     -0.073400
     23 C10        -1.0580    5.9070   -5.2210 c3        1 YA2     -0.045200
     24 C9         -1.7100    5.9450   -3.8760 c2        1 YA2     -0.075400
     25 C8         -2.6680    6.8150   -3.5170 ce        1 YA2     -0.152000
     26 C7         -3.1570    7.9050   -4.3340 ce        1 YA2     -0.119000
     27 C1         -4.4130    8.3860   -4.3160 c2        1 YA2     -0.110400
     28 C2         -4.7810    9.5700   -5.1440 c3        1 YA2     -0.034200
     29 C6         -5.5000    7.8280   -3.4680 c3        1 YA2     -0.034200
     30 C5         -6.7610    7.5840   -4.3010 c3        1 YA2      0.183800
     31 O33        -7.7440    7.0880   -3.4030 oh        1 YA2     -0.594300
     32 C4         -7.1780    8.8470   -4.9950 c2        1 YA2     -0.193400
     33 C32        -8.3640    9.4350   -4.8360 c2        1 YA2     -0.199000
     34 C3         -6.1110    9.4210   -5.8850 c3        1 YA2      0.183800
     35 O34        -5.8670    8.5950   -7.0200 oh        1 YA2     -0.594300
     36 H1         -0.5920   -0.1850    0.0740 ho        1 YA2      0.397000
     37 H2          0.7610   -0.8230    1.7940 hc        1 YA2      0.048950
     38 H3          1.4320    0.8440    1.9600 hc        1 YA2      0.048950
     39 H4          3.7340   -0.1160    1.2820 hc        1 YA2      0.035200
     40 H5          3.0630   -0.7350    2.8460 hc        1 YA2      0.035200
     41 H6          2.9920   -1.7650    1.3590 hc        1 YA2      0.035200
     42 H7          2.7060   -1.3500   -0.8580 hc        1 YA2      0.048950
     43 H8          1.3780   -0.8730   -1.9940 hc        1 YA2      0.048950
     44 H9         -0.2820   -2.1490   -0.6140 hc        1 YA2      0.035200
     45 H10         1.0730   -3.1970   -1.1940 hc        1 YA2      0.035200
     46 H11         1.0380   -2.6390    0.5280 hc        1 YA2      0.035200
     47 H12         3.2530    1.0170   -0.4950 hc        1 YA2      0.049200
     48 H13         1.9660    1.3450   -1.7240 hc        1 YA2      0.049200
     49 H14         0.8580    2.5660    0.5000 hc        1 YA2      0.072700
     50 H15         3.7750    3.4870    0.6790 hc        1 YA2      0.040200
     51 H16         3.2640    2.0130    1.5820 hc        1 YA2      0.040200
     52 H17         1.4460    3.2610    2.7070 hc        1 YA2      0.040700
     53 H18         1.8170    4.7440    1.7470 hc        1 YA2      0.040700
     54 H19         4.1310    4.8060    2.7280 hc        1 YA2      0.037700
     55 H20         3.7740    3.3120    3.6760 hc        1 YA2      0.037700
     56 H21         2.2520    6.0030    3.9040 hc        1 YA2      0.032367
     57 H22         1.8970    4.5050    4.8560 hc        1 YA2      0.032367
     58 H23         3.4790    5.3600    5.0710 hc        1 YA2      0.032367
     59 H24         1.8890    4.7390   -0.4440 hc        1 YA2      0.049700
     60 H25         2.8340    3.0340   -2.8170 hc        1 YA2      0.032700
     61 H26         3.9320    3.3140   -1.4070 hc        1 YA2      0.032700
     62 H27         3.2800    4.7220   -2.3370 hc        1 YA2      0.032700
     63 H28         0.4660    2.7800   -2.3570 hc        1 YA2      0.053700
     64 H29        -1.0790    2.8200   -0.6310 hc        1 YA2      0.049700
     65 H30        -0.4310    4.3450    0.0980 hc        1 YA2      0.049700
     66 H31        -2.7610    4.1490   -1.5920 hc        1 YA2      0.042700
     67 H32        -1.9100    5.6610   -1.0890 hc        1 YA2      0.042700
     68 H33        -1.4680    3.8810   -3.5590 hc        1 YA2      0.056700
     69 H34         0.3100    7.0770   -2.8180 hc        1 YA2      0.036367
     70 H35         1.8520    6.3190   -2.2370 hc        1 YA2      0.036367
     71 H36         0.3820    6.3260   -1.1730 hc        1 YA2      0.036367
     72 H37         0.6630    3.6700   -4.5650 hc        1 YA2      0.041200
     73 H38         2.0490    4.7410   -4.1150 hc        1 YA2      0.041200
     74 H39         0.9130    6.7330   -4.8890 hc        1 YA2      0.038700
     75 H40         0.8210    5.4850   -6.1900 hc        1 YA2      0.038700
     76 H41        -1.4980    5.0390   -5.7850 hc        1 YA2      0.049200
     77 H42        -1.2980    6.8330   -5.8080 hc        1 YA2      0.049200
     78 H43        -3.1310    6.7250   -2.5170 ha        1 YA2      0.127000
     79 H44        -2.4120    8.3740   -5.0040 ha        1 YA2      0.124000
     80 H45        -3.9830    9.7810   -5.9050 hc        1 YA2      0.062700
     81 H46        -4.8650   10.4640   -4.4690 hc        1 YA2      0.062700
     82 H47        -5.2010    6.8560   -2.9960 hc        1 YA2      0.062700
     83 H48        -5.7410    8.5460   -2.6390 hc        1 YA2      0.062700
     84 H49        -6.5460    6.8050   -5.0910 h1        1 YA2      0.044700
     85 H50        -8.5140    6.8560   -3.9350 ho        1 YA2      0.399500
     86 H51        -8.6400   10.3600   -5.3600 ha        1 YA2      0.119500
     87 H52        -9.1300    9.0350   -4.1570 ha        1 YA2      0.119500
     88 H53        -6.4330   10.4390   -6.2580 h1        1 YA2      0.044700
     89 H54        -6.7250    8.3940   -7.4100 ho        1 YA2      0.399500
@<TRIPOS>BOND
     1    1    2 1   
     2    1   36 1   
     3    2    3 1   
     4    2    5 1   
     5    2    7 1   
     6    3    4 1   
     7    3   37 1   
     8    3   38 1   
     9    4   39 1   
    10    4   40 1   
    11    4   41 1   
    12    5    6 1   
    13    5   42 1   
    14    5   43 1   
    15    6   44 1   
    16    6   45 1   
    17    6   46 1   
    18    7    8 1   
    19    7   47 1   
    20    7   48 1   
    21    8    9 1   
    22    8   13 1   
    23    8   49 1   
    24    9   10 1   
    25    9   50 1   
    26    9   51 1   
    27   10   11 1   
    28   10   52 1   
    29   10   53 1   
    30   11   12 1   
    31   11   54 1   
    32   11   55 1   
    33   12   56 1   
    34   12   57 1   
    35   12   58 1   
    36   13   14 1   
    37   13   15 1   
    38   13   59 1   
    39   14   60 1   
    40   14   61 1   
    41   14   62 1   
    42   15   16 1   
    43   15   18 1   
    44   15   63 1   
    45   16   17 1   
    46   16   64 1   
    47   16   65 1   
    48   17   19 1   
    49   17   66 1   
    50   17   67 1   
    51   18   19 1   
    52   18   20 1   
    53   18   21 1   
    54   19   24 1   
    55   19   68 1   
    56   20   69 1   
    57   20   70 1   
    58   20   71 1   
    59   21   22 1   
    60   21   72 1   
    61   21   73 1   
    62   22   23 1   
    63   22   74 1   
    64   22   75 1   
    65   23   24 1   
    66   23   76 1   
    67   23   77 1   
    68   24   25 2   
    69   25   26 1   
    70   25   78 1   
    71   26   27 2   
    72   26   79 1   
    73   27   28 1   
    74   27   29 1   
    75   28   34 1   
    76   28   80 1   
    77   28   81 1   
    78   29   30 1   
    79   29   82 1   
    80   29   83 1   
    81   30   31 1   
    82   30   32 1   
    83   30   84 1   
    84   31   85 1   
    85   32   33 2   
    86   32   34 1   
    87   33   86 1   
    88   33   87 1   
    89   34   35 1   
    90   34   88 1   
    91   35   89 1   
@<TRIPOS>SUBSTRUCTURE
     1 YA2         1 TEMP              0 ****  ****    0 ROOT
