@<TRIPOS>MOLECULE
YAC
   26    26     1     0     0
SMALL
bcc


@<TRIPOS>ATOM
      1 C21         3.2660   -1.7100    4.5030 c         1 YAC      0.906200
      2 O2          3.2970   -0.8840    5.4600 o         1 YAC     -0.817800
      3 C22        -2.0900    1.6840    2.6970 c3        1 YAC     -0.088100
      4 C23        -1.3770    0.3630    2.8300 c3        1 YAC     -0.063200
      5 C24        -0.3270    0.3820    3.8730 c2        1 YAC     -0.116200
      6 C25         0.4170   -0.6710    4.2380 ce        1 YAC     -0.240200
      7 C26         0.2970   -2.0180    3.6610 c         1 YAC      0.594900
      8 O3         -0.4790   -2.2720    2.7200 o         1 YAC     -0.589100
      9 C27         1.0850   -3.1010    4.2970 ca        1 YAC     -0.155600
     10 C28         0.4200   -4.3260    4.4890 ca        1 YAC     -0.102000
     11 C29         1.0630   -5.4000    5.0920 ca        1 YAC     -0.180000
     12 C30         2.3940   -5.2670    5.4970 ca        1 YAC     -0.129000
     13 C31         3.0620   -4.0670    5.2920 ca        1 YAC     -0.131000
     14 C32         2.4220   -2.9690    4.6920 ca        1 YAC     -0.056600
     15 H29        -2.8690    1.6240    1.9000 hc        1 YAC      0.023700
     16 H30        -2.5890    1.9640    3.6570 hc        1 YAC      0.023700
     17 H31        -1.3720    2.4960    2.4280 hc        1 YAC      0.023700
     18 H32        -0.9070    0.0770    1.8470 hc        1 YAC      0.064200
     19 H33        -2.1170   -0.4530    3.0620 hc        1 YAC      0.064200
     20 H34        -0.1590    1.3560    4.3650 ha        1 YAC      0.115000
     21 H35         1.2050   -0.5580    5.0130 ha        1 YAC      0.199000
     22 H36        -0.6210   -4.4250    4.1460 ha        1 YAC      0.123000
     23 H37         0.5310   -6.3480    5.2440 ha        1 YAC      0.107000
     24 H38         2.9080   -6.1130    5.9730 ha        1 YAC      0.106000
     25 H39         4.1130   -3.9550    5.5990 ha        1 YAC      0.135000
     26 OXT         3.9050   -1.5860    3.4260 o         1 YAC     -0.817800
@<TRIPOS>BOND
     1    1    2 1   
     2    1   14 1   
     3    1   26 1   
     4    3    4 1   
     5    3   15 1   
     6    3   16 1   
     7    3   17 1   
     8    4    5 1   
     9    4   18 1   
    10    4   19 1   
    11    5    6 2   
    12    5   20 1   
    13    6    7 1   
    14    6   21 1   
    15    7    8 2   
    16    7    9 1   
    17    9   10 ar  
    18    9   14 ar  
    19   10   11 ar  
    20   10   22 1   
    21   11   12 ar  
    22   11   23 1   
    23   12   13 ar  
    24   12   24 1   
    25   13   14 ar  
    26   13   25 1   
@<TRIPOS>SUBSTRUCTURE
     1 YAC         1 TEMP              0 ****  ****    0 ROOT
