@<TRIPOS>MOLECULE
molecule
   26    26     1     0     0
SMALL
bcc


@<TRIPOS>ATOM
      1 C21          0.0000     0.0000     0.0000 c          1 YAC       0.886600
      2 O2           1.2080     0.0000     0.0000 o          1 YAC      -0.850800
      3 C22         -0.7530     0.0000     1.3060 c3         1 YAC      -0.195400
      4 C23          0.2430    -0.0000     2.4690 c3         1 YAC       0.016800
      5 C24         -0.5100     0.0000     3.7740 c2         1 YAC      -0.189200
      6 C25         -0.2090    -0.8940     4.7150 ce         1 YAC      -0.318200
      7 C26          1.0560    -1.6390     4.6450 c          1 YAC       0.629900
      8 O3           1.8840    -1.3520     3.8020 o          1 YAC      -0.565100
      9 C27          1.3200    -2.7370     5.5990 ca         1 YAC      -0.144600
     10 C28          0.3680    -3.0730     6.5640 ca         1 YAC      -0.078500
     11 C29          0.6210    -4.1000     7.4500 ca         1 YAC      -0.150500
     12 C30          1.8160    -4.7950     7.3840 ca         1 YAC      -0.116000
     13 C31          2.7640    -4.4670     6.4310 ca         1 YAC      -0.150500
     14 C32          2.5200    -3.4480     5.5340 ca         1 YAC      -0.078500
     15 H29         -1.3750     0.8850     1.3640 hc         1 YAC       0.039700
     16 H30         -1.3760    -0.8840     1.3640 hc         1 YAC       0.039700
     17 H31          0.8660    -0.8850     2.4110 hc         1 YAC       0.092200
     18 H32          0.8660     0.8840     2.4110 hc         1 YAC       0.092200
     19 H33          0.3930     0.5960     3.7230 ha         1 YAC       0.151000
     20 H34         -0.2120    -1.8230     4.1590 ha         1 YAC       0.060000
     21 H35         -0.5680    -2.5290     6.6160 ha         1 YAC       0.154500
     22 H36         -0.1170    -4.3620     8.1990 ha         1 YAC       0.126000
     23 H37          2.0120    -5.5980     8.0840 ha         1 YAC       0.120000
     24 H38          3.6960    -5.0170     6.3840 ha         1 YAC       0.126000
     25 H39          3.2630    -3.1920     4.7890 ha         1 YAC       0.154500
     26 OXT         -0.6720     0.0050    -1.1610 o          1 YAC      -0.850800
@<TRIPOS>BOND
     1     1     2 1
     2     1     3 1
     3     3     4 1
     4     4     5 1
     5     5     6 2
     6     6     7 1
     7     7     8 2
     8     7     9 1
     9     9    14 ar
    10     9    10 ar
    11    10    11 ar
    12    11    12 ar
    13    12    13 ar
    14    13    14 ar
    15     3    15 1
    16     3    16 1
    17     4    17 1
    18     4    18 1
    19     5    19 1
    20     6    20 1
    21    10    21 1
    22    11    22 1
    23    12    23 1
    24    13    24 1
    25    14    25 1
    26     1    26 1
@<TRIPOS>SUBSTRUCTURE
     1 YAC         1 TEMP              0 ****  ****    0 ROOT
