@<TRIPOS>MOLECULE
YAK
   60    64     1     0     0
SMALL
bcc


@<TRIPOS>ATOM
      1 F34        -0.1720    0.9980    1.7470 f         1 YAK     -0.130900
      2 C11         1.0510    0.7650    1.2190 ca        1 YAK      0.142900
      3 C5          2.0430    0.1390    1.9990 ca        1 YAK     -0.168000
      4 C6          1.3280    1.1490   -0.1070 ca        1 YAK     -0.168000
      5 C2          2.5890    0.9060   -0.6390 ca        1 YAK     -0.090500
      6 C8          3.5790    0.2850    0.1320 ca        1 YAK     -0.145300
      7 C1          3.2990   -0.0930    1.4480 ca        1 YAK     -0.090500
      8 C23         4.9230    0.0040   -0.4740 c3        1 YAK      0.142300
      9 N26         5.8180    1.1490   -0.4900 n         1 YAK     -0.453800
     10 C21         6.5170    1.4370    0.7390 c3        1 YAK      0.116700
     11 C19         7.7520    0.5420    0.9950 c3        1 YAK     -0.100400
     12 C17         8.6180    1.3230    1.9660 c3        1 YAK     -0.079400
     13 C20         7.0200    2.8930    0.9170 c3        1 YAK     -0.094500
     14 C18         8.3060    2.7980    1.7510 c3        1 YAK     -0.085400
     15 C14         7.2500    3.6080   -0.3760 c2        1 YAK      0.242900
     16 O33         7.8910    4.8090   -0.3500 oh        1 YAK     -0.465100
     17 C16         5.9070    1.9430   -1.6170 c         1 YAK      0.736700
     18 O28         5.2400    1.6660   -2.6410 o         1 YAK     -0.670500
     19 C13         6.7850    3.1380   -1.5700 ce        1 YAK     -0.361800
     20 C15         7.1170    3.7960   -2.8550 ce        1 YAK      0.857500
     21 N24         8.4030    4.0590   -3.1040 nf        1 YAK     -0.670100
     22 C9          8.7830    4.6720   -4.2830 ca        1 YAK      0.340400
     23 C3         10.1850    4.8540   -4.5220 ca        1 YAK     -0.113000
     24 N25         6.0760    4.0880   -3.7290 nh        1 YAK     -0.830100
     25 S35         6.1810    4.9640   -5.1190 sy        1 YAK      1.521200
     26 O29         5.6180    6.2270   -4.9560 o         1 YAK     -0.626300
     27 O30         5.7230    4.2340   -6.2180 o         1 YAK     -0.626300
     28 C12         7.8660    5.1220   -5.2690 ca        1 YAK     -0.441500
     29 C7          8.3380    5.7310   -6.4330 ca        1 YAK      0.035000
     30 C10         9.7060    5.8610   -6.6720 ca        1 YAK     -0.149400
     31 C4         10.6350    5.4350   -5.6810 ca        1 YAK     -0.059000
     32 N27        10.1940    6.4690   -7.8960 n4        1 YAK     -0.559300
     33 S36        10.8910    5.2020   -9.1180 s6        1 YAK      1.410900
     34 O31        10.8570    5.9540  -10.2760 o         1 YAK     -0.563300
     35 O32        12.0870    4.8600   -8.5240 o         1 YAK     -0.563300
     36 C22         9.7490    4.0300   -9.0830 c3        1 YAK     -0.466300
     37 H5          1.8130   -0.1630    3.0310 ha        1 YAK      0.156000
     38 H6          0.5440    1.6310   -0.7090 ha        1 YAK      0.156000
     39 H2          2.8180    1.1990   -1.6780 ha        1 YAK      0.143500
     40 H1          4.0720   -0.5900    2.0550 ha        1 YAK      0.143500
     41 H23         4.7790   -0.3440   -1.5400 h1        1 YAK      0.077700
     42 H23A        5.4340   -0.8210    0.1030 h1        1 YAK      0.077700
     43 H21         5.7800    1.2450    1.5830 h1        1 YAK      0.076700
     44 H19         7.4380   -0.4420    1.4220 hc        1 YAK      0.064700
     45 H19A        8.3090    0.3400    0.0450 hc        1 YAK      0.064700
     46 H17         8.3840    1.0290    3.0210 hc        1 YAK      0.062200
     47 H17A        9.7030    1.1140    1.7920 hc        1 YAK      0.062200
     48 H20         6.2400    3.4790    1.4830 hc        1 YAK      0.095700
     49 H18         8.1650    3.3180    2.7310 hc        1 YAK      0.058700
     50 H18A        9.1640    3.2920    1.2260 hc        1 YAK      0.058700
     51 HO33        8.1360    5.0220    0.5670 ho        1 YAK      0.448000
     52 H3         10.9070    4.5200   -3.7550 ha        1 YAK      0.186000
     53 HN25        5.2060    3.6430   -3.4830 hn        1 YAK      0.504800
     54 H7          7.5940    6.0980   -7.1680 ha        1 YAK      0.156000
     55 H4         11.7200    5.5580   -5.8450 ha        1 YAK      0.167000
     56 HN27        9.4470    7.0190   -8.3240 hn        1 YAK      0.459800
     57 H22         8.9390    4.1480   -9.8600 h1        1 YAK      0.181367
     58 H22A       10.1810    3.0040   -9.2880 h1        1 YAK      0.181367
     59 H22B        9.1910    3.8770   -8.1140 h1        1 YAK      0.181367
     60 H272       10.9360    7.1290   -7.6440 hn        1 YAK      0.459800
@<TRIPOS>BOND
     1    1    2 1
     2    2    3 ar
     3    2    4 ar
     4    3    7 ar
     5    3   37 1
     6    4    5 ar
     7    4   38 1
     8    5    6 ar
     9    5   39 1
    10    6    7 ar
    11    6    8 1
    12    7   40 1
    13    8    9 1
    14    8   41 1
    15    8   42 1
    16    9   10 1
    17    9   17 1
    18   10   11 1
    19   10   13 1
    20   10   43 1
    21   11   12 1
    22   11   44 1
    23   11   45 1
    24   12   14 1
    25   12   46 1
    26   12   47 1
    27   13   14 1
    28   13   15 1
    29   13   48 1
    30   14   49 1
    31   14   50 1
    32   15   16 1
    33   15   19 2
    34   16   51 1
    35   17   18 2
    36   17   19 1
    37   19   20 1
    38   20   21 2
    39   20   24 1
    40   21   22 1
    41   22   23 ar
    42   22   28 ar
    43   23   31 ar
    44   23   52 1
    45   24   25 1
    46   24   53 1
    47   25   26 2
    48   25   27 2
    49   25   28 1
    50   28   29 ar
    51   29   30 ar
    52   29   54 1
    53   30   31 ar
    54   30   32 1
    55   31   55 1
    56   32   33 1
    57   32   56 1
    58   32   60 1
    59   33   34 2
    60   33   35 2
    61   33   36 1
    62   36   57 1
    63   36   58 1
    64   36   59 1
@<TRIPOS>SUBSTRUCTURE
     1 YAK         1 TEMP              0 ****  ****    0 ROOT
