@<TRIPOS>MOLECULE
molecule
   55    58     1     0     0
SMALL
bcc


@<TRIPOS>ATOM
      1 C35          0.0000     0.0000     0.0000 c3         1 YAM       0.235100
      2 C34          2.5190    -1.7580    -1.8240 c3         1 YAM      -0.240300
      3 N2          -1.1950     6.1370     0.1080 nb         1 YAM      -0.827000
      4 C7          -1.9320     5.2940     0.8160 ca         1 YAM       0.573200
      5 C6          -1.3550     4.1390     1.3050 ca         1 YAM      -0.562900
      6 C13          2.4550     1.2080     1.8290 ca         1 YAM      -0.212600
      7 C20          2.1590     0.0000     1.2040 ca         1 YAM       0.670200
      8 C21         -0.8830    10.4340    -2.0230 ca         1 YAM       0.037600
      9 C8          -2.1630     3.1580     2.1150 c3         1 YAM       0.691200
     10 C18          3.5260    -0.0320     3.5590 ca         1 YAM      -0.251300
     11 C16          0.5610     8.5710    -2.4960 ca         1 YAM      -0.125000
     12 C19          3.1940    -1.1920     2.8880 ca         1 YAM       0.440200
     13 O33          3.5400     0.6030    -1.1180 o          1 YAM      -0.623300
     14 S31          2.2940    -0.0020    -1.4340 s6         1 YAM       1.329900
     15 O32          1.3980     0.6030    -2.3560 o          1 YAM      -0.623300
     16 N30          1.4650     0.0000     0.0000 nh         1 YAM      -0.796200
     17 C17          3.1520     1.1940     3.0240 ca         1 YAM      -0.069000
     18 N1           2.5340    -1.1490     1.7460 nb         1 YAM      -0.709000
     19 N10          0.6130     2.7530     1.5020 nu         1 YAM      -0.896900
     20 C5          -0.0060     3.9000     1.0330 ca         1 YAM       0.807200
     21 F29         -2.1730     1.9160     1.4690 f          1 YAM      -0.228633
     22 F28         -1.5920     3.0180     3.3850 f          1 YAM      -0.228633
     23 F27         -3.4750     3.6270     2.2440 f          1 YAM      -0.228633
     24 N4           0.6740     4.7880     0.3150 nb         1 YAM      -0.860000
     25 C3           0.0830     5.8840    -0.1360 ca         1 YAM       0.993900
     26 N9           0.8190     6.7910    -0.8820 nu         1 YAM      -0.743300
     27 C11          0.2490     8.0100    -1.2630 ca         1 YAM       0.131600
     28 C14         -0.6310     8.6670    -0.4110 ca         1 YAM      -0.072000
     29 C22         -1.1880     9.8670    -0.7930 ca         1 YAM      -0.131300
     30 C23         -2.1560    10.8100    -0.1160 c3         1 YAM      -0.120100
     31 C15          0.0000     9.7730    -2.8740 ca         1 YAM      -0.139000
     32 N25         -1.5620    11.6450    -2.1770 ns         1 YAM      -0.462100
     33 C24         -2.3320    11.9350    -1.1130 c          1 YAM       0.709500
     34 O26         -3.0310    12.9170    -0.9760 o          1 YAM      -0.608500
     35 H35         -0.3610    -0.8740    -0.5280 h1         1 YAM       0.050033
     36 H35A        -0.3610    -0.0200     1.0210 h1         1 YAM       0.050033
     37 H35B        -0.3610     0.8940    -0.4930 h1         1 YAM       0.050033
     38 H34          2.8640    -1.8590    -2.8460 h1         1 YAM       0.100367
     39 H34A         1.5760    -2.2780    -1.7080 h1         1 YAM       0.100367
     40 H34B         3.2530    -2.1860    -1.1520 h1         1 YAM       0.100367
     41 H7          -2.9760     5.5100     1.0100 h4         1 YAM       0.045100
     42 H18          4.0700    -0.0780     4.4940 ha         1 YAM       0.145000
     43 H16          1.2460     8.0610    -3.1630 ha         1 YAM       0.139000
     44 H19          3.4840    -2.1500     3.3020 h4         1 YAM       0.029100
     45 H17          3.3980     2.1180     3.5320 ha         1 YAM       0.148000
     46 H12          2.6240     3.3190     1.6200 h1         1 YAM       0.068200
     47 H12A         2.1730     2.4670     0.1370 h1         1 YAM       0.068200
     48 HN10         0.1080     2.1150     2.0840 hn         1 YAM       0.459800
     49 HN9          1.7670     6.5830    -1.1270 hn         1 YAM       0.471800
     50 H14         -0.8780     8.2360     0.5510 ha         1 YAM       0.160000
     51 H23         -1.7330    11.1870     0.8080 hc         1 YAM       0.092200
     52 H23A        -3.1020    10.3150     0.0650 hc         1 YAM       0.092200
     53 H15          0.2480    10.2040    -3.8370 ha         1 YAM       0.136000
     54 HN25        -1.4900    12.2270    -2.9880 hn         1 YAM       0.336500
     55 C12          2.0290     2.5130     1.2100 c3         1 YAM       0.296100
@<TRIPOS>BOND
     1    16     1 1
     2     1    35 1
     3     1    36 1
     4     1    37 1
     5    14     2 1
     6     2    38 1
     7     2    39 1
     8     2    40 1
     9    25     3 ar
    10     3     4 ar
    11     4     5 ar
    12     4    41 1
    13    20     5 ar
    14     5     9 1
    15    17     6 ar
    16     6    55 1
    17     6     7 ar
    18    18     7 ar
    19     7    16 1
    20    32     8 1
    21    29     8 ar
    22     8    31 ar
    23    22     9 1
    24     9    23 1
    25     9    21 1
    26    10    17 ar
    27    10    12 ar
    28    10    42 1
    29    31    11 ar
    30    27    11 ar
    31    11    43 1
    32    12    18 ar
    33    12    44 1
    34    13    14 2
    35    16    14 1
    36    14    15 2
    37    17    45 1
    38    55    19 1
    39    55    46 1
    40    55    47 1
    41    20    19 1
    42    19    48 1
    43    24    20 ar
    44    24    25 ar
    45    26    25 1
    46    27    26 1
    47    26    49 1
    48    28    27 ar
    49    29    28 ar
    50    28    50 1
    51    30    29 1
    52    33    30 1
    53    30    51 1
    54    30    52 1
    55    31    53 1
    56    33    32 1
    57    32    54 1
    58    34    33 2
@<TRIPOS>SUBSTRUCTURE
     1 YAM         1 TEMP              0 ****  ****    0 ROOT
