@<TRIPOS>MOLECULE
YAM
   55    58     1     0     0
SMALL
bcc


@<TRIPOS>ATOM
      1 C35          0.0000     0.0000     0.0000 c3         1 YAM       0.269100
      2 C34          2.5190    -1.7580    -1.8240 c3         1 YAM       0.018700
      3 N2          -1.1950     6.1370     0.1080 nb         1 YAM      -0.744000
      4 C7          -1.9320     5.2940     0.8160 ca         1 YAM       0.587200
      5 C6          -1.3550     4.1390     1.3050 ca         1 YAM      -0.608900
      6 C13          2.4550     1.2080     1.8290 ca         1 YAM      -0.215600
      7 C20          2.1590     0.0000     1.2040 ca         1 YAM       0.564200
      8 C21         -0.8830    10.4340    -2.0230 ca         1 YAM      -0.114400
      9 C8          -2.1630     3.1580     2.1150 c3         1 YAM       0.668200
     10 C18          3.5260    -0.0320     3.5590 ca         1 YAM      -0.219300
     11 C16          0.5610     8.5710    -2.4960 ca         1 YAM      -0.097000
     12 C19          3.1940    -1.1920     2.8880 ca         1 YAM       0.421200
     13 O33          3.5400     0.6030    -1.1180 o          1 YAM      -0.581800
     14 S31          2.2940    -0.0020    -1.4340 s6         1 YAM       0.963900
     15 O32          1.3980     0.6030    -2.3560 o          1 YAM      -0.581800
     16 N30          1.4650     0.0000     0.0000 nh         1 YAM      -0.511200
     17 C17          3.1520     1.1940     3.0240 ca         1 YAM      -0.041000
     18 N1           2.5340    -1.1490     1.7460 nb         1 YAM      -0.597000
     19 N10          0.6130     2.7530     1.5020 nu         1 YAM      -0.491900
     20 C5          -0.0060     3.9000     1.0330 ca         1 YAM       0.640200
     21 F29         -2.1730     1.9160     1.4690 f          1 YAM      -0.212967
     22 F28         -1.5920     3.0180     3.3850 f          1 YAM      -0.212967
     23 F27         -3.4750     3.6270     2.2440 f          1 YAM      -0.212967
     24 N4           0.6740     4.7880     0.3150 nb         1 YAM      -0.763000
     25 C3           0.0830     5.8840    -0.1360 ca         1 YAM       0.764900
     26 N9           0.8190     6.7910    -0.8820 nu         1 YAM      -0.267300
     27 C11          0.2490     8.0100    -1.2630 ca         1 YAM      -0.029400
     28 C14         -0.6310     8.6670    -0.4110 ca         1 YAM      -0.042000
     29 C22         -1.1880     9.8670    -0.7930 ca         1 YAM      -0.132300
     30 C23         -2.1560    10.8100    -0.1160 c3         1 YAM      -0.047100
     31 C15          0.0000     9.7730    -2.8740 ca         1 YAM      -0.100000
     32 N25         -1.5620    11.6450    -2.1770 ns         1 YAM      -0.009100
     33 C24         -2.3320    11.9350    -1.1130 c          1 YAM       0.608500
     34 O26         -3.0310    12.9170    -0.9760 o          1 YAM      -0.651500
     35 H35         -0.3610    -0.8740    -0.5280 h1         1 YAM       0.009033
     36 H35A        -0.3610    -0.0200     1.0210 h1         1 YAM       0.009033
     37 H35B        -0.3610     0.8940    -0.4930 h1         1 YAM       0.009033
     38 H34          2.8640    -1.8590    -2.8460 h1         1 YAM       0.065033
     39 H34A         1.5760    -2.2780    -1.7080 h1         1 YAM       0.065033
     40 H34B         3.2530    -2.1860    -1.1520 h1         1 YAM       0.065033
     41 H7          -2.9760     5.5100     1.0100 h4         1 YAM      -0.006900
     42 H18          4.0700    -0.0780     4.4940 ha         1 YAM       0.117000
     43 H16          1.2460     8.0610    -3.1630 ha         1 YAM       0.110000
     44 H19          3.4840    -2.1500     3.3020 h4         1 YAM      -0.018900
     45 H17          3.3980     2.1180     3.5320 ha         1 YAM       0.115000
     46 H12          2.6240     3.3190     1.6200 h1         1 YAM       0.041700
     47 H12A         2.1730     2.4670     0.1370 h1         1 YAM       0.041700
     48 HN10         0.1080     2.1150     2.0840 hn         1 YAM       0.308800
     49 HN9          1.7670     6.5830    -1.1270 hn         1 YAM       0.295800
     50 H14         -0.8780     8.2360     0.5510 ha         1 YAM       0.134000
     51 H23         -1.7330    11.1870     0.8080 hc         1 YAM       0.054200
     52 H23A        -3.1020    10.3150     0.0650 hc         1 YAM       0.054200
     53 H15          0.2480    10.2040    -3.8370 ha         1 YAM       0.107000
     54 HN25        -1.4900    12.2270    -2.9880 hn         1 YAM       0.175500
     55 C12          2.0290     2.5130     1.2100 c3         1 YAM       0.228100
@<TRIPOS>BOND
     1     1    16 1   
     2     1    35 1   
     3     1    36 1   
     4     1    37 1   
     5     2    14 1   
     6     2    38 1   
     7     2    39 1   
     8     2    40 1   
     9     3     4 ar  
    10     3    25 ar  
    11     4     5 ar  
    12     4    41 1   
    13     5     9 1   
    14     5    20 ar  
    15     6     7 ar  
    16     6    17 ar  
    17     6    55 1   
    18     7    16 1   
    19     7    18 ar  
    20     8    29 ar  
    21     8    31 ar  
    22     8    32 1   
    23     9    21 1   
    24     9    22 1   
    25     9    23 1   
    26    10    12 ar  
    27    10    17 ar  
    28    10    42 1   
    29    11    27 ar  
    30    11    31 ar  
    31    11    43 1   
    32    12    18 ar  
    33    12    44 1   
    34    13    14 2   
    35    14    15 2   
    36    14    16 1   
    37    17    45 1   
    38    19    20 1   
    39    19    48 1   
    40    19    55 1   
    41    20    24 ar  
    42    24    25 ar  
    43    25    26 1   
    44    26    27 1   
    45    26    49 1   
    46    27    28 ar  
    47    28    29 ar  
    48    28    50 1   
    49    29    30 1   
    50    30    33 1   
    51    30    51 1   
    52    30    52 1   
    53    31    53 1   
    54    32    33 1   
    55    32    54 1   
    56    33    34 2   
    57    46    55 1   
    58    47    55 1   
@<TRIPOS>SUBSTRUCTURE
     1 YAM         1 TEMP              0 ****  ****    0 ROOT
