@<TRIPOS>MOLECULE
molecule
   12    12     1     0     0
SMALL
bcc


@<TRIPOS>ATOM
      1 Cl1          0.0000     0.0000     0.0000 cl         1 YAN      -0.084900
      2 CAG          1.7290     0.0000     0.0000 ca         1 YAN       0.029400
      3 CAE          2.3800     0.0000     1.2330 ca         1 YAN      -0.115000
      4 CAC          3.7740     0.0020     1.2850 ca         1 YAN      -0.121000
      5 CAD          4.5160     0.0030     0.1050 ca         1 YAN      -0.121000
      6 CAF          3.8650     0.0030    -1.1280 ca         1 YAN      -0.115000
      7 CAH          2.4710     0.0010    -1.1810 ca         1 YAN       0.029400
      8 Cl2          1.7220     0.0020    -2.7390 cl         1 YAN      -0.084900
      9 HAE          1.8040    -0.0010     2.1510 ha         1 YAN       0.151000
     10 HAC          4.2800     0.0020     2.2430 ha         1 YAN       0.140500
     11 HAD          5.5990     0.0040     0.1460 ha         1 YAN       0.140500
     12 HAF          4.4420     0.0040    -2.0450 ha         1 YAN       0.151000
@<TRIPOS>BOND
     1     1     2 1
     2     2     3 ar
     3     2     7 ar
     4     3     4 ar
     5     3     9 1
     6     4     5 ar
     7     4    10 1
     8     5     6 ar
     9     5    11 1
    10     6     7 ar
    11     6    12 1
    12     7     8 1
@<TRIPOS>SUBSTRUCTURE
     1 YAN         1 TEMP              0 ****  ****    0 ROOT
