@<TRIPOS>MOLECULE
YAN
   12    12     1     0     0
SMALL
bcc


@<TRIPOS>ATOM
      1 CL1         0.0240   -0.0010   -0.0310 cl        1 YAN     -0.070400
      2 CAG         1.7200    0.0010   -0.0000 ca        1 YAN      0.017400
      3 CAE         2.3780    0.0010    1.2350 ca        1 YAN     -0.117000
      4 CAC         3.7700    0.0020    1.2830 ca        1 YAN     -0.121000
      5 CAD         4.5130    0.0030    0.1020 ca        1 YAN     -0.121000
      6 CAF         3.8660    0.0030   -1.1310 ca        1 YAN     -0.117000
      7 CAH         2.4670    0.0020   -1.1880 ca        1 YAN      0.017400
      8 CL2         1.7040    0.0020   -2.7040 cl        1 YAN     -0.070400
      9 HAE         1.7920   -0.0010    2.1680 ha        1 YAN      0.151000
     10 HAC         4.2820    0.0020    2.2570 ha        1 YAN      0.141000
     11 HAD         5.6120    0.0040    0.1420 ha        1 YAN      0.141000
     12 HAF         4.4520    0.0040   -2.0630 ha        1 YAN      0.151000
@<TRIPOS>BOND
     1    1    2 1   
     2    2    3 ar  
     3    2    7 ar  
     4    3    4 ar  
     5    3    9 1   
     6    4    5 ar  
     7    4   10 1   
     8    5    6 ar  
     9    5   11 1   
    10    6    7 ar  
    11    6   12 1   
    12    7    8 1   
@<TRIPOS>SUBSTRUCTURE
     1 YAN         1 TEMP              0 ****  ****    0 ROOT
