@<TRIPOS>MOLECULE
YAP
   58    62     1     0     0
SMALL
bcc


@<TRIPOS>ATOM
      1 C            0.0000     0.0000     0.0000 c2         1 YAP       0.417000
      2 N            1.9970     1.2000    -0.6940 nz         1 YAP       0.806000
      3 O           -0.6040     1.0310    -0.1830 o          1 YAP      -0.343000
      4 P           -2.2800    -1.0590     0.1980 p5         1 YAP       1.364000
      5 N1          -6.4220    -8.7720     6.1540 n2         1 YAP      -0.137000
      6 C2          -6.5030    -9.0410     4.8630 c2         1 YAP      -0.032000
      7 N3          -6.1330    -8.1820     3.9370 n2         1 YAP      -0.085000
      8 C4          -5.6560    -6.9890     4.2730 c2         1 YAP      -0.182000
      9 C5          -5.5500    -6.6530     5.6340 c2         1 YAP      -0.176000
     10 C6          -5.9580    -7.6040     6.5850 c2         1 YAP       0.070000
     11 N6          -5.8770    -7.3310     7.9390 nv         1 YAP      -0.041000
     12 N7          -5.0410    -5.3990     5.6970 n2         1 YAP      -0.121000
     13 C8          -4.8320    -4.9550     4.4920 c2         1 YAP      -0.163000
     14 N9          -5.1960    -5.8980     3.5780 na         1 YAP       0.331000
     15 CA           1.5070     0.0000     0.0000 c3         1 YAP      -0.219000
     16 CB           2.0170     0.0000     1.4420 c3         1 YAP      -0.191000
     17 CG           3.5180    -0.1240     1.4450 ca         1 YAP      -0.128000
     18 CZ           6.2760    -0.3510     1.4500 ca         1 YAP       0.105000
     19 C1'         -5.1110    -5.7720     2.1210 DU         1 YAP       0.139000
     20 O1P         -2.7750    -0.1570     1.4360 o          1 YAP      -0.602000
     21 C2'         -6.4660    -5.2960     1.5350 c3         1 YAP      -0.380000
     22 O2'         -7.3320    -6.4060     1.2890 oh         1 YAP      -0.318000
     23 O2P         -2.7350    -0.4480    -1.0710 o          1 YAP      -0.602000
     24 C3'         -6.0280    -4.6320     0.2070 c3         1 YAP      -0.006000
     25 O3'         -6.1970    -5.5380    -0.8850 oh         1 YAP      -0.321000
     26 O3P         -0.6710    -1.1430     0.2070 os         1 YAP      -0.569000
     27 C4'         -4.5360    -4.3130     0.4170 c3         1 YAP       0.117000
     28 O4'         -4.1960    -4.7160     1.7550 os         1 YAP      -0.224000
     29 C5'         -4.2950    -2.8110     0.2510 c3         1 YAP       0.011000
     30 O5'         -2.8950    -2.5410     0.3320 os         1 YAP      -0.636000
     31 CD1          4.3050     1.0120     1.4100 ca         1 YAP      -0.087500
     32 CD2          4.1080    -1.3740     1.4860 ca         1 YAP      -0.087500
     33 CE1          5.6820     0.9020     1.4130 ca         1 YAP      -0.123500
     34 CE2          5.4840    -1.4900     1.4890 ca         1 YAP      -0.123500
     35 HN           1.4660     1.3430    -1.5290 hn         1 YAP       0.023667
     36 HNA          1.8980     1.9950    -0.0950 hn         1 YAP       0.023667
     37 HN6         -6.6480    -6.8980     8.4090 hn         1 YAP       0.075000
     38 HN6A        -5.0600    -7.5920     8.4540 hn         1 YAP       0.075000
     39 HA           1.8670    -0.8850    -0.5100 hx         1 YAP       0.111000
     40 HB           2.1360    -0.8800     0.8220 hc         1 YAP       0.136000
     41 HBA          1.4240    -0.3740     2.2680 hc         1 YAP       0.136000
     42 H1'         -4.8100    -6.7080     1.6670 ha         1 YAP       0.054000
     43 H2'         -5.8720    -6.1700     1.2950 DU         1 YAP       0.276000
     44 HO2'        -7.7560    -5.7870     1.8600 ho         1 YAP       0.295000
     45 H3'         -6.5880    -3.7200     0.0400 h1         1 YAP       0.087000
     46 HO3'        -6.6910    -4.7520    -1.0510 ho         1 YAP       0.230000
     47 H4'         -3.9380    -4.8680    -0.2960 h1         1 YAP       0.061000
     48 H5'         -3.9160    -3.5200    -0.4750 h1         1 YAP       0.077000
     49 H5'A        -4.9440    -2.1860    -0.3520 h1         1 YAP       0.077000
     50 HD1          3.8410     1.9910     1.3820 ha         1 YAP       0.111500
     51 HD2          3.4900    -2.2630     1.5170 ha         1 YAP       0.111500
     52 HE1          6.2970     1.7930     1.3860 ha         1 YAP       0.126000
     53 HE2          5.9450    -2.4690     1.5210 ha         1 YAP       0.126000
     54 OH           7.6300    -0.4630     1.4520 oh         1 YAP      -0.243000
     55 HOH          7.9440    -0.5020     0.5630 ho         1 YAP       0.208000
     56 H8          -4.3780    -3.9860     4.6600 h5         1 YAP       0.205000
     57 HN3          2.9570     1.0700    -0.9460 hn         1 YAP       0.023667
     58 H2          -6.8840   -10.0160     4.5820 h5         1 YAP       0.134000
@<TRIPOS>BOND
     1     1     3 1   
     2     1    15 1   
     3     1    26 1   
     4     2    15 1   
     5     2    35 1   
     6     2    36 1   
     7     2    57 1   
     8     4    20 1   
     9     4    23 1   
    10     4    26 1   
    11     4    30 1   
    12     5     6 1   
    13     5    10 1   
    14     6     7 1   
    15     6    58 1   
    16     7     8 1   
    17     8     9 1   
    18     8    14 1   
    19     9    10 1   
    20     9    12 1   
    21    10    11 1   
    22    11    37 1   
    23    11    38 1   
    24    12    13 1   
    25    13    14 1   
    26    13    56 1   
    27    14    19 1   
    28    15    16 1   
    29    15    39 1   
    30    16    17 1   
    31    16    40 1   
    32    16    41 1   
    33    17    31 1   
    34    17    32 1   
    35    18    33 1   
    36    18    34 1   
    37    18    54 1   
    38    19    21 1   
    39    19    28 1   
    40    19    42 1   
    41    19    43 1   
    42    21    22 1   
    43    21    24 1   
    44    21    43 1   
    45    22    44 1   
    46    24    25 1   
    47    24    27 1   
    48    24    45 1   
    49    25    46 1   
    50    27    28 1   
    51    27    29 1   
    52    27    47 1   
    53    29    30 1   
    54    29    48 1   
    55    29    49 1   
    56    31    33 1   
    57    31    50 1   
    58    32    34 1   
    59    32    51 1   
    60    33    52 1   
    61    34    53 1   
    62    54    55 1   
@<TRIPOS>SUBSTRUCTURE
     1 YAP         1 TEMP              0 ****  ****    0 ROOT
