@<TRIPOS>MOLECULE
molecule
   58    61     1     0     0
SMALL
bcc


@<TRIPOS>ATOM
      1 C            0.0000     0.0000     0.0000 c          1 YAP       0.670100
      2 N            1.9970     1.2000    -0.6940 nz         1 YAP      -0.812600
      3 O           -0.6040     1.0310    -0.1830 o          1 YAP      -0.463000
      4 P           -2.2800    -1.0590     0.1980 p5         1 YAP       1.273800
      5 N1          -6.4220    -8.7720     6.1540 nb         1 YAP      -0.775000
      6 C2          -6.5030    -9.0410     4.8630 ca         1 YAP       0.697900
      7 N3          -6.1330    -8.1820     3.9370 nb         1 YAP      -0.751000
      8 C4          -5.6560    -6.9890     4.2730 ca         1 YAP       0.436800
      9 C5          -5.5500    -6.6530     5.6340 ca         1 YAP      -0.151200
     10 C6          -5.9580    -7.6040     6.5850 ca         1 YAP       0.768200
     11 N6          -5.8770    -7.3310     7.9390 nv         1 YAP      -1.072500
     12 N7          -5.0410    -5.3990     5.6970 nc         1 YAP      -0.613100
     13 C8          -4.8320    -4.9550     4.4920 cd         1 YAP       0.463700
     14 N9          -5.1960    -5.8980     3.5780 na         1 YAP      -0.223000
     15 CA           1.5070     0.0000     0.0000 c3         1 YAP       0.102500
     16 CB           2.0170     0.0000     1.4420 c3         1 YAP      -0.149100
     17 CG           3.5180    -0.1240     1.4450 ca         1 YAP      -0.127300
     18 CZ           6.2760    -0.3510     1.4500 ca         1 YAP       0.130100
     19 C1'         -5.1110    -5.7720     2.1210 c3         1 YAP       0.294800
     20 O1P         -2.7750    -0.1570     1.4360 o          1 YAP      -0.754000
     21 C2'         -6.4660    -5.2960     1.5350 c3         1 YAP      -0.246900
     22 O2'         -7.3320    -6.4060     1.2890 oh         1 YAP      -0.582800
     23 O2P         -2.7350    -0.4480    -1.0710 o          1 YAP      -0.754000
     24 C3'         -6.0280    -4.6320     0.2070 c3         1 YAP       0.048100
     25 O3'         -6.1970    -5.5380    -0.8850 oh         1 YAP      -0.581800
     26 O3P         -0.6710    -1.1430     0.2070 os         1 YAP      -0.503500
     27 C4'         -4.5360    -4.3130     0.4170 c3         1 YAP       0.179100
     28 O4'         -4.1960    -4.7160     1.7550 os         1 YAP      -0.367600
     29 C5'         -4.2950    -2.8110     0.2510 c3         1 YAP       0.098400
     30 O5'         -2.8950    -2.5410     0.3320 os         1 YAP      -0.572200
     31 CD1          4.3050     1.0120     1.4100 ca         1 YAP      -0.120500
     32 CD2          4.1080    -1.3740     1.4860 ca         1 YAP      -0.120500
     33 CE1          5.6820     0.9020     1.4130 ca         1 YAP      -0.142500
     34 CE2          5.4840    -1.4900     1.4890 ca         1 YAP      -0.142500
     35 HN           1.4660     1.3430    -1.5290 hn         1 YAP       0.455800
     36 HNA          1.8980     1.9950    -0.0950 hn         1 YAP       0.455800
     37 HN6         -6.6480    -6.8980     8.4090 hn         1 YAP       0.442300
     38 HN6A        -5.0600    -7.5920     8.4540 hn         1 YAP       0.442300
     39 HA           1.8670    -0.8850    -0.5100 hx         1 YAP       0.100700
     40 HB           2.1360    -0.8800     0.8220 hc         1 YAP       0.128200
     41 HBA          1.4240    -0.3740     2.2680 hc         1 YAP       0.128200
     42 H1'         -4.8100    -6.7080     1.6670 h2         1 YAP       0.052700
     43 H2'         -5.8720    -6.1700     1.2950 h1         1 YAP       0.272700
     44 HO2'        -7.7560    -5.7870     1.8600 ho         1 YAP       0.483000
     45 H3'         -6.5880    -3.7200     0.0400 h1         1 YAP       0.088700
     46 HO3'        -6.6910    -4.7520    -1.0510 ho         1 YAP       0.426000
     47 H4'         -3.9380    -4.8680    -0.2960 h1         1 YAP       0.056700
     48 H5'         -3.9160    -3.5200    -0.4750 h1         1 YAP       0.088700
     49 H5'A        -4.9440    -2.1860    -0.3520 h1         1 YAP       0.088700
     50 HD1          3.8410     1.9910     1.3820 ha         1 YAP       0.139500
     51 HD2          3.4900    -2.2630     1.5170 ha         1 YAP       0.139500
     52 HE1          6.2970     1.7930     1.3860 ha         1 YAP       0.157000
     53 HE2          5.9450    -2.4690     1.5210 ha         1 YAP       0.157000
     54 OH           7.6300    -0.4630     1.4520 oh         1 YAP      -0.509100
     55 HOH          7.9440    -0.5020     0.5630 ho         1 YAP       0.428000
     56 H8          -4.3780    -3.9860     4.6600 h5         1 YAP       0.124800
     57 HN3          2.9570     1.0700    -0.9460 hn         1 YAP       0.455800
     58 H2          -6.8840   -10.0160     4.5820 h5         1 YAP       0.061100
@<TRIPOS>BOND
     1     1     3 2
     2     1    15 1
     3     1    26 1
     4     2    15 1
     5     4    20 1
     6     4    23 1
     7     4    26 1
     8     4    30 1
     9     5     6 ar
    10     5    10 ar
    11     6     7 ar
    12     7     8 ar
    13     8     9 ar
    14     8    14 1
    15     9    10 ar
    16     9    12 1
    17    10    11 1
    18    12    13 2
    19    13    14 1
    20    14    19 1
    21    15    16 1
    22    16    17 1
    23    17    31 ar
    24    17    32 ar
    25    54    18 1
    26    18    33 ar
    27    18    34 ar
    28    19    21 1
    29    19    28 1
    30    21    22 1
    31    21    24 1
    32    24    25 1
    33    24    27 1
    34    27    28 1
    35    27    29 1
    36    29    30 1
    37    31    33 ar
    38    32    34 ar
    39     2    35 1
    40     2    36 1
    41     6    58 1
    42    11    37 1
    43    11    38 1
    44    13    56 1
    45    15    39 1
    46    16    40 1
    47    16    41 1
    48    54    55 1
    49    19    42 1
    50    21    43 1
    51    22    44 1
    52    24    45 1
    53    25    46 1
    54    27    47 1
    55    29    48 1
    56    29    49 1
    57    31    50 1
    58    32    51 1
    59    33    52 1
    60    34    53 1
    61    57     2 1
@<TRIPOS>SUBSTRUCTURE
     1 YAP         1 TEMP              0 ****  ****    0 ROOT
