@<TRIPOS>MOLECULE
molecule
   67    70     1     0     0
SMALL
bcc


@<TRIPOS>ATOM
      1 Cl1          0.0000     0.0000     0.0000 cl         1 YAU      -0.113400
      2 C26          1.7360     0.0000     0.0000 ca         1 YAU       0.026400
      3 C25          2.4290     0.0000     1.1970 ca         1 YAU      -0.122500
      4 C24          3.8110     0.0010     1.1960 ca         1 YAU      -0.112000
      5 C27          2.4280    -0.0050    -1.1990 ca         1 YAU      -0.122500
      6 C28          3.8090    -0.0050    -1.1990 ca         1 YAU      -0.112000
      7 C23          4.5020     0.0010    -0.0010 ca         1 YAU      -0.082300
      8 C22          6.0070     0.0010    -0.0030 c3         1 YAU      -0.050100
      9 C21          6.5180    -1.4410    -0.0030 c3         1 YAU       0.168100
     10 O3           6.1400    -2.0800    -1.2240 oh         1 YAU      -0.603800
     11 C20          8.0430    -1.4430     0.1220 c3         1 YAU      -0.168400
     12 C19          8.5360    -2.8620     0.2450 c          1 YAU       0.686100
     13 O2           7.7450    -3.7810     0.2340 o          1 YAU      -0.616100
     14 N            9.8550    -3.1090     0.3680 n          1 YAU      -0.502800
     15 C2          10.9180    -2.0930     0.3960 c3         1 YAU       0.101000
     16 C3          10.4710    -4.4410     0.5020 c3         1 YAU       0.112000
     17 C4          11.9230    -4.2600    -0.0060 c3         1 YAU      -0.040400
     18 C1          12.2620    -2.8400     0.5230 c3         1 YAU      -0.075700
     19 C           13.3340    -2.1780    -0.3440 c3         1 YAU       0.145400
     20 O           13.6250    -0.8760     0.1700 oh         1 YAU      -0.616800
     21 C5          12.8390    -5.2940     0.5960 ca         1 YAU      -0.059300
     22 C18         13.5450    -6.1530    -0.2230 ca         1 YAU      -0.127000
     23 C9          14.3890    -7.1040     0.3330 ca         1 YAU       0.071600
     24 C8          14.5210    -7.1900     1.7140 ca         1 YAU      -0.013600
     25 Cl          15.5750    -8.3780     2.4140 cl         1 YAU      -0.112400
     26 C7          13.8120    -6.3270     2.5280 ca         1 YAU      -0.098000
     27 C6          12.9760    -5.3770     1.9700 ca         1 YAU      -0.138000
     28 N1          15.1050    -7.9760    -0.4960 ns         1 YAU      -0.473100
     29 C10         15.3900    -7.6200    -1.7640 c          1 YAU       0.658100
     30 O1          15.1150    -6.5050    -2.1560 o          1 YAU      -0.585100
     31 C11         16.0500    -8.6040    -2.6940 c3         1 YAU      -0.106100
     32 C12         16.2590    -7.9620    -4.0410 ca         1 YAU      -0.088300
     33 C17         17.4300    -7.2780    -4.3060 ca         1 YAU      -0.085000
     34 C16         17.6220    -6.6880    -5.5410 ca         1 YAU      -0.164500
     35 C15         16.6410    -6.7830    -6.5130 ca         1 YAU       0.138900
     36 F           16.8270    -6.2070    -7.7210 f          1 YAU      -0.140900
     37 C14         15.4680    -7.4680    -6.2460 ca         1 YAU      -0.164500
     38 C13         15.2800    -8.0620    -5.0130 ca         1 YAU      -0.085000
     39 H25          1.8880    -0.0000     2.1350 ha         1 YAU       0.143500
     40 H27          1.8860    -0.0100    -2.1370 ha         1 YAU       0.143500
     41 H24          4.3530     0.0030     2.1340 ha         1 YAU       0.140500
     42 H28          4.3500    -0.0070    -2.1370 ha         1 YAU       0.140500
     43 H221         6.3690     0.5130     0.8810 hc         1 YAU       0.057700
     44 H222         6.3670     0.5120    -0.8880 hc         1 YAU       0.057700
     45 H21          6.0870    -1.9770     0.8340 h1         1 YAU       0.052700
     46 H3           5.6120    -2.8380    -1.0330 ho         1 YAU       0.419000
     47 H201         8.3340    -0.8820     1.0020 hc         1 YAU       0.070200
     48 H202         8.4780    -0.9850    -0.7580 hc         1 YAU       0.070200
     49 H21C        10.7790    -1.4400     1.2490 h1         1 YAU       0.051200
     50 H22C        10.9020    -1.5190    -0.5220 h1         1 YAU       0.051200
     51 H31C        10.4720    -4.7520     1.5390 h1         1 YAU       0.061700
     52 H32C         9.9450    -5.1610    -0.1130 h1         1 YAU       0.061700
     53 H1          12.5740    -2.8860     1.5600 hc         1 YAU       0.077700
     54 H4          11.9570    -4.2850    -1.0890 hc         1 YAU       0.079700
     55 HC1         12.9730    -2.0910    -1.3620 h1         1 YAU       0.033700
     56 HC2         14.2340    -2.7810    -0.3300 h1         1 YAU       0.033700
     57 H           14.3890    -0.5310    -0.2620 ho         1 YAU       0.408000
     58 H18         13.4400    -6.0840    -1.2990 ha         1 YAU       0.180000
     59 H6          12.4220    -4.7020     2.6110 ha         1 YAU       0.142000
     60 HA          15.3790    -8.8770    -0.1570 hn         1 YAU       0.334500
     61 H7          13.9160    -6.3920     3.6050 ha         1 YAU       0.148000
     62 H111        17.0080    -8.9020    -2.2830 hc         1 YAU       0.071700
     63 H112        15.4170    -9.4770    -2.8040 hc         1 YAU       0.071700
     64 H17         18.1980    -7.2050    -3.5450 ha         1 YAU       0.136000
     65 H13         14.3620    -8.5980    -4.8040 ha         1 YAU       0.136000
     66 H16         18.5410    -6.1520    -5.7490 ha         1 YAU       0.146500
     67 H14         14.7000    -7.5440    -7.0060 ha         1 YAU       0.146500
@<TRIPOS>BOND
     1     1     2 1
     2     2     3 ar
     3     2     5 ar
     4     3     4 ar
     5     4     7 ar
     6     5     6 ar
     7     6     7 ar
     8     7     8 1
     9     8     9 1
    10     9    10 1
    11     9    11 1
    12    11    12 1
    13    12    13 2
    14    12    14 1
    15    14    15 1
    16    14    16 1
    17    15    18 1
    18    16    17 1
    19    17    18 1
    20    17    21 1
    21    18    19 1
    22    19    20 1
    23    21    22 ar
    24    21    27 ar
    25    22    23 ar
    26    23    24 ar
    27    23    28 1
    28    24    25 1
    29    24    26 ar
    30    26    27 ar
    31    28    29 1
    32    29    30 2
    33    29    31 1
    34    31    32 1
    35    32    33 ar
    36    32    38 ar
    37    33    34 ar
    38    34    35 ar
    39    35    36 1
    40    35    37 ar
    41    37    38 ar
    42     3    39 1
    43     5    40 1
    44     4    41 1
    45     6    42 1
    46     8    43 1
    47     8    44 1
    48     9    45 1
    49    10    46 1
    50    11    47 1
    51    11    48 1
    52    15    49 1
    53    15    50 1
    54    16    51 1
    55    16    52 1
    56    18    53 1
    57    17    54 1
    58    19    55 1
    59    19    56 1
    60    20    57 1
    61    22    58 1
    62    27    59 1
    63    28    60 1
    64    26    61 1
    65    31    62 1
    66    31    63 1
    67    33    64 1
    68    38    65 1
    69    34    66 1
    70    37    67 1
@<TRIPOS>SUBSTRUCTURE
     1 YAU         1 TEMP              0 ****  ****    0 ROOT
