@<TRIPOS>MOLECULE
molecule
   67    70     1     0     0
SMALL
bcc


@<TRIPOS>ATOM
      1 O39          0.0000     0.0000     0.0000 o          1 YBH      -0.545100
      2 C31          1.2080     0.0000     0.0000 c          1 YBH       0.552900
      3 C17          1.9620     0.0000     1.3050 c3         1 YBH       0.021700
      4 C12          2.8410    -1.2490     1.3870 c3         1 YBH      -0.195400
      5 C6           3.6850    -1.1880     2.6330 c          1 YBH       0.886600
      6 O38          3.5930    -0.2430     3.3810 o          1 YBH      -0.840800
      7 O36          4.5400    -2.1850     2.9140 o          1 YBH      -0.840800
      8 N4           1.0090     0.0010     2.4190 ns         1 YBH      -0.517900
      9 C18          0.4940     1.1640     2.8640 c          1 YBH       0.680100
     10 O35          0.8190     2.2110     2.3430 o          1 YBH      -0.637100
     11 C8          -0.4850     1.1660     4.0100 c3         1 YBH      -0.057400
     12 C28         -1.6960     0.3510     3.6350 cc         1 YBH       0.021600
     13 S41         -2.8420     0.5930     2.2880 ss         1 YBH      -0.175800
     14 C9          -2.1950    -0.7600     4.2310 cd         1 YBH      -0.190000
     15 C15         -3.3350    -1.3450     3.7110 cd         1 YBH      -0.174000
     16 C7          -3.9120    -0.7970     2.6140 cc         1 YBH      -0.065100
     17 C11         -0.9110     2.6020     4.3150 c3         1 YBH      -0.059400
     18 C25         -1.8070     2.6170     5.5540 c3         1 YBH      -0.083400
     19 C13         -2.2330     4.0540     5.8600 c3         1 YBH      -0.100400
     20 C14         -3.1300     4.0680     7.1000 c3         1 YBH       0.109000
     21 N3          -3.5380     5.4450     7.3920 ns         1 YBH      -0.579900
     22 C33         -4.3360     5.7010     8.4470 c          1 YBH       0.669700
     23 O37         -4.7160     4.7900     9.1580 o          1 YBH      -0.612100
     24 C16         -4.7470     7.0870     8.7420 ca         1 YBH      -0.139600
     25 C20         -5.5740     7.3550     9.8360 ca         1 YBH      -0.079000
     26 C21         -5.9550     8.6500    10.1080 ca         1 YBH      -0.131500
     27 C22         -5.5190     9.6900     9.2940 ca         1 YBH       0.107100
     28 C23         -4.6970     9.4270     8.2050 ca         1 YBH      -0.131500
     29 C24         -4.3060     8.1360     7.9310 ca         1 YBH      -0.079000
     30 O34         -5.8980    10.9650     9.5660 os         1 YBH      -0.330400
     31 C26         -5.1030    11.4040    10.5740 ca         1 YBH       0.516300
     32 C27         -5.3270    12.6710    11.1350 ca         1 YBH       0.305900
     33 N1          -4.5690    13.1130    12.1110 nb         1 YBH      -0.618000
     34 N2          -4.1330    10.6340    11.0230 nb         1 YBH      -0.709000
     35 C30         -3.3470    11.0690    12.0150 ca         1 YBH       0.353300
     36 C29         -3.5740    12.3500    12.5790 ca         1 YBH       0.272300
     37 C10         -2.7490    12.7970    13.6240 ca         1 YBH      -0.148300
     38 C32         -1.7450    12.0000    14.0810 ca         1 YBH      -0.138000
     39 C19         -1.5200    10.7410    13.5260 ca         1 YBH      -0.119000
     40 C5          -2.3000    10.2750    12.5120 ca         1 YBH      -0.164300
     41 H31          1.7490     0.0320    -0.9380 h4         1 YBH      -0.021800
     42 H17          2.5850     0.8840     1.3620 h1         1 YBH       0.111700
     43 H121         2.2120    -2.1310     1.4190 hc         1 YBH       0.042200
     44 H122         3.4840    -1.2960     0.5170 hc         1 YBH       0.042200
     45 HN4          0.7520    -0.8610     2.8580 hn         1 YBH       0.323500
     46 H8          -0.0160     0.7340     4.8860 hc         1 YBH       0.089700
     47 H9          -1.7130    -1.1780     5.1060 ha         1 YBH       0.142000
     48 H15         -3.7560    -2.2320     4.1690 ha         1 YBH       0.132000
     49 H7          -4.7960    -1.1180     2.0770 h4         1 YBH       0.176000
     50 H111        -1.4570     3.0040     3.4700 hc         1 YBH       0.062200
     51 H112        -0.0320     3.2080     4.4980 hc         1 YBH       0.062200
     52 H251        -1.2610     2.2150     6.3990 hc         1 YBH       0.047200
     53 H252        -2.6860     2.0110     5.3710 hc         1 YBH       0.047200
     54 H131        -2.7800     4.4570     5.0150 hc         1 YBH       0.045700
     55 H132        -1.3540     4.6600     6.0430 hc         1 YBH       0.045700
     56 H141        -4.0080     3.4610     6.9170 h1         1 YBH       0.055200
     57 H142        -2.5830     3.6660     7.9450 h1         1 YBH       0.055200
     58 HN3         -3.2420     6.1920     6.7950 hn         1 YBH       0.313500
     59 H20         -5.9140     6.5450    10.4700 ha         1 YBH       0.147000
     60 H21         -6.5960     8.8590    10.9560 ha         1 YBH       0.141500
     61 H23         -4.3570    10.2410     7.5750 ha         1 YBH       0.141500
     62 H24         -3.6650     7.9320     7.0820 ha         1 YBH       0.147000
     63 H27         -6.1320    13.2910    10.7580 h4         1 YBH       0.042100
     64 H10         -2.8580    13.7600    14.1090 ha         1 YBH       0.147000
     65 H32         -1.1030    12.3370    14.8860 ha         1 YBH       0.134000
     66 H19         -0.7080    10.1470    13.9260 ha         1 YBH       0.137000
     67 H5          -1.9710     9.2970    12.1800 ha         1 YBH       0.155000
@<TRIPOS>BOND
     1     1     2 2
     2     2     3 1
     3     2    41 1
     4     3     4 1
     5     3     8 1
     6     3    42 1
     7     4     5 1
     8     4    43 1
     9     4    44 1
    10     5     6 1
    11     5     7 1
    12     8     9 1
    13     8    45 1
    14     9    10 2
    15     9    11 1
    16    11    12 1
    17    11    17 1
    18    11    46 1
    19    12    13 1
    20    12    14 2
    21    13    16 1
    22    14    15 1
    23    14    47 1
    24    15    16 2
    25    15    48 1
    26    16    49 1
    27    17    18 1
    28    17    50 1
    29    17    51 1
    30    18    19 1
    31    18    52 1
    32    18    53 1
    33    19    20 1
    34    19    54 1
    35    19    55 1
    36    20    21 1
    37    20    56 1
    38    20    57 1
    39    21    22 1
    40    21    58 1
    41    22    23 2
    42    22    24 1
    43    24    25 ar
    44    24    29 ar
    45    25    26 ar
    46    25    59 1
    47    26    27 ar
    48    26    60 1
    49    27    28 ar
    50    27    30 1
    51    28    29 ar
    52    28    61 1
    53    29    62 1
    54    30    31 1
    55    31    32 ar
    56    31    34 ar
    57    32    33 ar
    58    32    63 1
    59    33    36 ar
    60    34    35 ar
    61    35    36 ar
    62    35    40 ar
    63    36    37 ar
    64    37    38 ar
    65    37    64 1
    66    38    39 ar
    67    38    65 1
    68    39    40 ar
    69    39    66 1
    70    40    67 1
@<TRIPOS>SUBSTRUCTURE
     1 YBH         1 TEMP              0 ****  ****    0 ROOT
