@<TRIPOS>MOLECULE
YBN
   51    54     1     0     0
SMALL
bcc


@<TRIPOS>ATOM
      1 C            0.0000     0.0000     0.0000 c3         1 YBN       0.244700
      2 N           11.5740     0.4340     5.8220 n7         1 YBN      -0.577200
      3 O            1.4280     0.0000     0.0000 os         1 YBN      -0.306900
      4 S            6.9600    -4.3020     2.6730 ss         1 YBN      -0.162500
      5 C1           2.0450     0.0000     1.2100 ca         1 YBN       0.148100
      6 O1           6.0370    -1.3460     2.6230 os         1 YBN      -0.397900
      7 C2           1.2920    -0.0000     2.3740 ca         1 YBN      -0.202000
      8 O2           8.1130    -0.5570     2.7340 o          1 YBN      -0.571000
      9 C3           1.9210     0.0000     3.6050 ca         1 YBN      -0.060000
     10 O3          10.1930    -2.1530     2.8450 os         1 YBN      -0.298900
     11 C4           3.3020     0.0000     3.6750 ca         1 YBN      -0.120000
     12 C5           4.0560     0.0000     2.5170 ca         1 YBN      -0.077300
     13 C6           5.5600     0.0010     2.5970 c3         1 YBN       0.281700
     14 C7           7.3730    -1.5230     2.6950 c          1 YBN       0.741300
     15 C8           7.9140    -2.8330     2.7230 cc         1 YBN      -0.118600
     16 C9           8.3900    -5.3230     2.7490 ca         1 YBN       0.047900
     17 C10          8.5060    -6.7180     2.7560 ca         1 YBN      -0.067000
     18 C11          9.7440    -7.3100     2.8220 ca         1 YBN      -0.074000
     19 C12         10.8900    -6.5290     2.8840 ca         1 YBN      -0.112000
     20 C13         10.8030    -5.1720     2.8800 ca         1 YBN      -0.036000
     21 C14          9.5440    -4.5340     2.8110 ca         1 YBN      -0.125800
     22 C15          9.2370    -3.1140     2.7950 cd         1 YBN       0.231900
     23 C16         10.5830    -1.6930     4.1410 c3         1 YBN       0.193100
     24 C17         12.0470    -1.2490     4.1070 c3         1 YBN      -0.053400
     25 C18         12.4410    -0.7010     5.4800 c3         1 YBN       0.151800
     26 C19         10.1680     0.0220     5.9070 c3         1 YBN       0.151800
     27 C20          9.7060    -0.5050     4.5460 c3         1 YBN      -0.053400
     28 C21          3.4310    -0.0050     1.2850 ca         1 YBN      -0.115000
     29 H           -0.3610     0.8840     0.5110 h1         1 YBN      -0.002633
     30 HA          -0.3610    -0.8850     0.5100 h1         1 YBN      -0.002633
     31 HB          -0.3610     0.0000    -1.0210 h1         1 YBN      -0.002633
     32 H2           0.2100    -0.0000     2.3190 ha         1 YBN       0.119000
     33 H3           1.3320     0.0000     4.5140 ha         1 YBN       0.101000
     34 H4           3.7940     0.0010     4.6400 ha         1 YBN       0.108000
     35 H6           5.9680     0.5110     1.7330 h1         1 YBN       0.013700
     36 H6A          5.8730     0.5120     3.5000 h1         1 YBN       0.013700
     37 H10          7.6150    -7.3340     2.7070 ha         1 YBN       0.114000
     38 H11          9.8260    -8.3900     2.8260 ha         1 YBN       0.107000
     39 H12         11.8620    -7.0050     2.9360 ha         1 YBN       0.108000
     40 H13         11.7060    -4.5750     2.9290 ha         1 YBN       0.112000
     41 H16         10.4650    -2.4910     4.8640 h1         1 YBN       0.004700
     42 H17         12.6760    -2.0970     3.8630 hc         1 YBN       0.040200
     43 H17A        12.1710    -0.4730     3.3600 hc         1 YBN       0.040200
     44 H18         12.3250    -1.4790     6.2250 h1         1 YBN       0.003450
     45 H18A        13.4720    -0.3710     5.4540 h1         1 YBN       0.003450
     46 H19         10.0670    -0.7610     6.6490 h1         1 YBN       0.003450
     47 H19A         9.5600     0.8730     6.1880 h1         1 YBN       0.003450
     48 H20          8.6730    -0.8250     4.6150 hc         1 YBN       0.040200
     49 H20A         9.7980     0.2800     3.8050 hc         1 YBN       0.040200
     50 H21          4.0230    -0.0050     0.3770 ha         1 YBN       0.121000
     51 HN          11.8620     0.8210     6.7000 hn         1 YBN       0.249800
@<TRIPOS>BOND
     1     1     3 1   
     2     1    29 1   
     3     1    30 1   
     4     1    31 1   
     5     2    25 1   
     6     2    26 1   
     7     2    51 1   
     8     3     5 1   
     9     4    15 1   
    10     4    16 1   
    11     5     7 ar  
    12     5    28 ar  
    13     6    13 1   
    14     6    14 1   
    15     7     9 ar  
    16     7    32 1   
    17     8    14 2   
    18     9    11 ar  
    19     9    33 1   
    20    10    22 1   
    21    10    23 1   
    22    11    12 ar  
    23    11    34 1   
    24    12    13 1   
    25    12    28 ar  
    26    13    35 1   
    27    13    36 1   
    28    14    15 1   
    29    15    22 2   
    30    16    17 ar  
    31    16    21 ar  
    32    17    18 ar  
    33    17    37 1   
    34    18    19 ar  
    35    18    38 1   
    36    19    20 ar  
    37    19    39 1   
    38    20    21 ar  
    39    20    40 1   
    40    21    22 1   
    41    23    24 1   
    42    23    27 1   
    43    23    41 1   
    44    24    25 1   
    45    24    42 1   
    46    24    43 1   
    47    25    44 1   
    48    25    45 1   
    49    26    27 1   
    50    26    46 1   
    51    26    47 1   
    52    27    48 1   
    53    27    49 1   
    54    28    50 1   
@<TRIPOS>SUBSTRUCTURE
     1 YBN         1 TEMP              0 ****  ****    0 ROOT
