@<TRIPOS>MOLECULE
YBY
   40    40     1     0     0
SMALL
bcc


@<TRIPOS>ATOM
      1 I18          0.0000     0.0000     0.0000 i          1 YBY      -0.344900
      2 C17          2.0950     0.0000     0.0000 ca         1 YBY       0.211900
      3 C16          2.7860     0.0000     1.1960 ca         1 YBY      -0.065000
      4 C19          2.7900    -0.0060    -1.2010 ca         1 YBY       0.106100
      5 O20          2.1120    -0.0120    -2.3800 oh         1 YBY      -0.518100
      6 C21          4.1770    -0.0060    -1.1980 ca         1 YBY      -0.147000
      7 C22          4.8630    -0.0000     0.0020 ca         1 YBY      -0.080000
      8 C15          4.1690     0.0000     1.1970 ca         1 YBY      -0.050300
      9 C14          4.9210     0.0010     2.5030 c3         1 YBY       0.022900
     10 C13          5.1750    -1.4410     2.9470 c3         1 YBY      -0.065300
     11 C23          6.0320    -1.4420     4.1860 c          1 YBY       0.974600
     12 O25          5.6170    -1.9390     5.2070 o          1 YBY      -0.902800
     13 O24          7.2560    -0.8910     4.1570 o          1 YBY      -0.902800
     14 N12          3.8970    -2.0950     3.2350 ns         1 YBY      -0.215900
     15 C11          3.7930    -3.4360     3.1500 c          1 YBY       0.597100
     16 O26          4.7590    -4.1030     2.8340 o          1 YBY      -0.729100
     17 N10          2.6160    -4.0390     3.4160 ns         1 YBY      -0.163900
     18 C6           2.5020    -5.4970     3.3230 c3         1 YBY      -0.084300
     19 C7           2.2160    -5.8890     1.8970 c          1 YBY       0.989600
     20 O9           2.0710    -7.1840     1.5730 o          1 YBY      -0.927300
     21 O8           2.1170    -5.0380     1.0440 o          1 YBY      -0.927300
     22 C5           1.3630    -5.9770     4.2230 c3         1 YBY      -0.013400
     23 C4           1.7110    -5.6910     5.6850 c3         1 YBY      -0.142400
     24 C2           0.5870    -6.1640     6.5710 c          1 YBY       0.986600
     25 O1          -0.3910    -6.6790     6.0830 o          1 YBY      -0.935300
     26 O3           0.6750    -6.0150     7.9030 o          1 YBY      -0.935300
     27 H16          2.2440     0.0000     2.1340 ha         1 YBY       0.129000
     28 HO20         1.9960    -0.9010    -2.6720 ho         1 YBY       0.406000
     29 H21          4.7210    -0.0080    -2.1340 ha         1 YBY       0.096000
     30 H22          5.9470    -0.0000     0.0050 ha         1 YBY       0.111000
     31 H14          4.3350     0.5130     3.2560 hc         1 YBY       0.023700
     32 H14A         5.8680     0.5120     2.3730 hc         1 YBY       0.023700
     33 H13          5.6850    -1.9770     2.1560 h1         1 YBY       0.058700
     34 HN12         3.1160    -1.5520     3.5470 hn         1 YBY       0.141500
     35 HN10         1.8130    -3.4880     3.6450 hn         1 YBY       0.144500
     36 H6           3.4320    -5.9530     3.6430 h1         1 YBY       0.053700
     37 H5           0.4510    -5.4550     3.9610 hc         1 YBY       0.025700
     38 H5A          1.2200    -7.0430     4.0880 hc         1 YBY       0.025700
     39 H4           1.8540    -4.6260     5.8210 hc         1 YBY       0.010700
     40 H4A          2.6230    -6.2140     5.9480 hc         1 YBY       0.010700
@<TRIPOS>BOND
     1     1     2 1   
     2     2     3 ar  
     3     2     4 ar  
     4     3     8 ar  
     5     3    27 1   
     6     4     5 1   
     7     4     6 ar  
     8     5    28 1   
     9     6     7 ar  
    10     6    29 1   
    11     7     8 ar  
    12     7    30 1   
    13     8     9 1   
    14     9    10 1   
    15     9    31 1   
    16     9    32 1   
    17    10    11 1   
    18    10    14 1   
    19    10    33 1   
    20    11    12 1   
    21    11    13 1   
    22    14    15 1   
    23    14    34 1   
    24    15    16 2   
    25    15    17 1   
    26    17    18 1   
    27    17    35 1   
    28    18    19 1   
    29    18    22 1   
    30    18    36 1   
    31    19    20 1   
    32    19    21 1   
    33    22    23 1   
    34    22    37 1   
    35    22    38 1   
    36    23    24 1   
    37    23    39 1   
    38    23    40 1   
    39    24    25 1   
    40    24    26 1   
@<TRIPOS>SUBSTRUCTURE
     1 YBY         1 TEMP              0 ****  ****    0 ROOT
