@<TRIPOS>MOLECULE
molecule
   40    40     1     0     0
SMALL
bcc


@<TRIPOS>ATOM
      1 I18          0.0000     0.0000     0.0000 i          1 YBY      -0.204900
      2 C17          2.0950     0.0000     0.0000 ca         1 YBY       0.055900
      3 C16          2.7860     0.0000     1.1960 ca         1 YBY      -0.073000
      4 C19          2.7900    -0.0060    -1.2010 ca         1 YBY       0.097100
      5 O20          2.1120    -0.0120    -2.3800 oh         1 YBY      -0.543100
      6 C21          4.1770    -0.0060    -1.1980 ca         1 YBY      -0.160000
      7 C22          4.8630    -0.0000     0.0020 ca         1 YBY      -0.104000
      8 C15          4.1690     0.0000     1.1970 ca         1 YBY      -0.046300
      9 C14          4.9210     0.0010     2.5030 c3         1 YBY      -0.041100
     10 C13          5.1750    -1.4410     2.9470 c3         1 YBY       0.039700
     11 C23          6.0320    -1.4420     4.1860 c          1 YBY       0.883600
     12 O25          5.6170    -1.9390     5.2070 o          1 YBY      -0.851300
     13 O24          7.2560    -0.8910     4.1570 o          1 YBY      -0.851300
     14 N12          3.8970    -2.0950     3.2350 ns         1 YBY      -0.594900
     15 C11          3.7930    -3.4360     3.1500 c          1 YBY       0.802100
     16 O26          4.7590    -4.1030     2.8340 o          1 YBY      -0.681100
     17 N10          2.6160    -4.0390     3.4160 ns         1 YBY      -0.564900
     18 C6           2.5020    -5.4970     3.3230 c3         1 YBY       0.024700
     19 C7           2.2160    -5.8890     1.8970 c          1 YBY       0.892600
     20 O9           2.0710    -7.1840     1.5730 o          1 YBY      -0.877300
     21 O8           2.1170    -5.0380     1.0440 o          1 YBY      -0.877300
     22 C5           1.3630    -5.9770     4.2230 c3         1 YBY      -0.059400
     23 C4           1.7110    -5.6910     5.6850 c3         1 YBY      -0.183400
     24 C2           0.5870    -6.1640     6.5710 c          1 YBY       0.891600
     25 O1          -0.3910    -6.6790     6.0830 o          1 YBY      -0.887800
     26 O3           0.6750    -6.0150     7.9030 o          1 YBY      -0.887800
     27 H16          2.2440     0.0000     2.1340 ha         1 YBY       0.148000
     28 HO20         1.9960    -0.9010    -2.6720 ho         1 YBY       0.422000
     29 H21          4.7210    -0.0080    -2.1340 ha         1 YBY       0.118000
     30 H22          5.9470    -0.0000     0.0050 ha         1 YBY       0.137000
     31 H14          4.3350     0.5130     3.2560 hc         1 YBY       0.051700
     32 H14A         5.8680     0.5120     2.3730 hc         1 YBY       0.051700
     33 H13          5.6850    -1.9770     2.1560 h1         1 YBY       0.078700
     34 HN12         3.1160    -1.5520     3.5470 hn         1 YBY       0.278500
     35 HN10         1.8130    -3.4880     3.6450 hn         1 YBY       0.285500
     36 H6           3.4320    -5.9530     3.6430 h1         1 YBY       0.069700
     37 H5           0.4510    -5.4550     3.9610 hc         1 YBY       0.048700
     38 H5A          1.2200    -7.0430     4.0880 hc         1 YBY       0.048700
     39 H4           1.8540    -4.6260     5.8210 hc         1 YBY       0.033200
     40 H4A          2.6230    -6.2140     5.9480 hc         1 YBY       0.033200
@<TRIPOS>BOND
     1     1     2 1
     2     3     2 ar
     3     2     4 ar
     4     3     8 ar
     5     3    27 1
     6     4     6 ar
     7     4     5 1
     8     5    28 1
     9     7     6 ar
    10     6    29 1
    11     8     7 ar
    12     7    30 1
    13     9     8 1
    14     9    10 1
    15     9    31 1
    16     9    32 1
    17    14    10 1
    18    10    11 1
    19    10    33 1
    20    11    12 1
    21    11    13 1
    22    15    14 1
    23    14    34 1
    24    16    15 2
    25    17    15 1
    26    18    17 1
    27    17    35 1
    28    19    18 1
    29    22    18 1
    30    18    36 1
    31    21    19 1
    32    20    19 1
    33    23    22 1
    34    22    37 1
    35    22    38 1
    36    24    23 1
    37    23    39 1
    38    23    40 1
    39    25    24 1
    40    24    26 1
@<TRIPOS>SUBSTRUCTURE
     1 YBY         1 TEMP              0 ****  ****    0 ROOT
