@<TRIPOS>MOLECULE
YC2
   52    52     1     0     0
SMALL
bcc


@<TRIPOS>ATOM
      1 I24          0.0000     0.0000     0.0000 i          1 YC2      -0.348900
      2 C23          2.0950     0.0000     0.0000 ca         1 YC2       0.229900
      3 C22          2.7840     0.0000     1.2000 ca         1 YC2      -0.105000
      4 C21          4.1640    -0.0000     1.2070 ca         1 YC2      -0.055500
      5 C25          2.7840    -0.0070    -1.2010 ca         1 YC2      -0.105000
      6 C26          4.1630    -0.0070    -1.2080 ca         1 YC2      -0.055500
      7 C20          4.8640    -0.0020    -0.0010 ca         1 YC2      -0.128600
      8 C19          6.3420    -0.0030    -0.0010 c          1 YC2       0.572700
      9 O27          6.9500    -0.0020     1.0510 o          1 YC2      -0.645100
     10 N18          7.0160    -0.0040    -1.1690 ns         1 YC2      -0.175900
     11 C17          8.4810    -0.0050    -1.1690 c3         1 YC2       0.036000
     12 C16          8.9910    -0.0060    -2.6110 c3         1 YC2      -0.043400
     13 C15         10.5210    -0.0060    -2.6120 c3         1 YC2      -0.037400
     14 C14         11.0300    -0.0080    -4.0540 c3         1 YC2      -0.023400
     15 C13         12.5600    -0.0080    -4.0550 c3         1 YC2      -0.070300
     16 C28         13.0620    -0.1330    -5.4700 c          1 YC2       0.975600
     17 O30         12.7370    -1.2090    -6.2050 o          1 YC2      -0.906300
     18 O29         13.7570     0.7340    -5.9430 o          1 YC2      -0.906300
     19 N12         13.0490     1.2430    -3.4720 ns         1 YC2      -0.211900
     20 C11         14.2720     1.2910    -2.9060 c          1 YC2       0.596100
     21 O31         14.9680     0.2950    -2.8790 o          1 YC2      -0.728100
     22 N10         14.7210     2.4430    -2.3690 ns         1 YC2      -0.165900
     23 C6          16.0490     2.4940    -1.7530 c3         1 YC2      -0.085300
     24 C7          15.9580     2.0320    -0.3230 c          1 YC2       0.989600
     25 O9          17.0610     1.9950     0.4430 o          1 YC2      -0.927800
     26 O8          14.8940     1.6940     0.1360 o          1 YC2      -0.927800
     27 C5          16.5750     3.9300    -1.7940 c3         1 YC2      -0.012400
     28 C4          16.7860     4.3570    -3.2470 c3         1 YC2      -0.141400
     29 C2          17.3030     5.7720    -3.2860 c          1 YC2       0.986600
     30 O1          17.4840     6.3780    -2.2560 o          1 YC2      -0.935800
     31 O3          17.5620     6.3600    -4.4650 o          1 YC2      -0.935800
     32 H22          2.2390     0.0020     2.1360 ha         1 YC2       0.114500
     33 H21          4.7020     0.0020     2.1470 ha         1 YC2       0.126000
     34 H25          2.2380    -0.0100    -2.1370 ha         1 YC2       0.114500
     35 H26          4.7010    -0.0100    -2.1480 ha         1 YC2       0.126000
     36 HN18         6.5160    -0.0040    -2.0360 hn         1 YC2       0.170500
     37 H17          8.8430     0.8800    -0.6600 h1         1 YC2       0.037700
     38 H17A         8.8420    -0.8890    -0.6580 h1         1 YC2       0.037700
     39 H16          8.6290    -0.8910    -3.1210 hc         1 YC2       0.006200
     40 H16A         8.6290     0.8780    -3.1230 hc         1 YC2       0.006200
     41 H15         10.8820     0.8790    -2.1030 hc         1 YC2       0.029200
     42 H15A        10.8820    -0.8900    -2.1010 hc         1 YC2       0.029200
     43 H14         10.6690    -0.8930    -4.5640 hc         1 YC2       0.014200
     44 H14A        10.6690     0.8760    -4.5660 hc         1 YC2       0.014200
     45 H13         12.9210    -0.8450    -3.4690 h1         1 YC2       0.056700
     46 HN12        12.4900     2.0710    -3.5250 hn         1 YC2       0.139500
     47 HN10        14.1290     3.2490    -2.3470 hn         1 YC2       0.143500
     48 H6          16.7260     1.8470    -2.2990 h1         1 YC2       0.054700
     49 H5          15.8550     4.5910    -1.3240 hc         1 YC2       0.024700
     50 H5A         17.5160     3.9850    -1.2610 hc         1 YC2       0.024700
     51 H4          17.5060     3.6970    -3.7160 hc         1 YC2       0.010700
     52 H4A         15.8450     4.3020    -3.7800 hc         1 YC2       0.010700
@<TRIPOS>BOND
     1     1     2 1   
     2     2     3 ar  
     3     2     5 ar  
     4     3     4 ar  
     5     3    32 1   
     6     4     7 ar  
     7     4    33 1   
     8     5     6 ar  
     9     5    34 1   
    10     6     7 ar  
    11     6    35 1   
    12     7     8 1   
    13     8     9 2   
    14     8    10 1   
    15    10    11 1   
    16    10    36 1   
    17    11    12 1   
    18    11    37 1   
    19    11    38 1   
    20    12    13 1   
    21    12    39 1   
    22    12    40 1   
    23    13    14 1   
    24    13    41 1   
    25    13    42 1   
    26    14    15 1   
    27    14    43 1   
    28    14    44 1   
    29    15    16 1   
    30    15    19 1   
    31    15    45 1   
    32    16    17 1   
    33    16    18 1   
    34    19    20 1   
    35    19    46 1   
    36    20    21 2   
    37    20    22 1   
    38    22    23 1   
    39    22    47 1   
    40    23    24 1   
    41    23    27 1   
    42    23    48 1   
    43    24    25 1   
    44    24    26 1   
    45    27    28 1   
    46    27    49 1   
    47    27    50 1   
    48    28    29 1   
    49    28    51 1   
    50    28    52 1   
    51    29    30 1   
    52    29    31 1   
@<TRIPOS>SUBSTRUCTURE
     1 YC2         1 TEMP              0 ****  ****    0 ROOT
