@<TRIPOS>MOLECULE
YC8
   36    37     1     0     0
SMALL
bcc


@<TRIPOS>ATOM
      1 C1           0.0000     0.0000     0.0000 c          1 YC8       0.986200
      2 N1          -2.1140    -0.1440     3.6490 nb         1 YC8      -0.603000
      3 O1           1.2140     0.0000     0.0000 o          1 YC8      -0.882300
      4 C2          -0.7390    -0.0510     1.2780 ca         1 YC8      -0.109600
      5 O2          -0.6730     0.0520    -1.1660 o          1 YC8      -0.882300
      6 C3          -2.1340     0.0510     1.3080 ca         1 YC8      -0.168300
      7 O3           1.2470    -1.7930     4.1800 o          1 YC8      -0.677100
      8 C4          -2.7840     0.0000     2.5230 ca         1 YC8       0.338200
      9 C5          -0.8020    -0.2460     3.6750 ca         1 YC8       0.359200
     10 C6          -0.0610    -0.2040     2.4990 ca         1 YC8      -0.183700
     11 C7           1.9220    -1.1010     3.4480 c          1 YC8       0.547100
     12 C8           3.4240    -1.1240     3.5610 c3         1 YC8      -0.100400
     13 C9           3.8360    -2.0950     4.6690 c3         1 YC8      -0.012400
     14 C10          5.3610    -2.1190     4.7850 c3         1 YC8       0.021900
     15 C11          5.7680    -3.0760     5.8760 ca         1 YC8      -0.056300
     16 C12          5.9020    -2.6250     7.1760 ca         1 YC8      -0.097000
     17 C13          6.2750    -3.5020     8.1770 ca         1 YC8      -0.112500
     18 C14          6.5130    -4.8310     7.8780 ca         1 YC8      -0.116000
     19 C15          6.3780    -5.2820     6.5780 ca         1 YC8      -0.112500
     20 C16          6.0010    -4.4060     5.5780 ca         1 YC8      -0.097000
     21 HN2          1.8850     0.2310     1.9020 hn         1 YC8       0.218500
     22 H3          -2.6960     0.1700     0.3890 ha         1 YC8       0.133000
     23 H4          -3.8650     0.0790     2.5530 h4         1 YC8      -0.039900
     24 H5          -0.2930    -0.3630     4.6250 h4         1 YC8      -0.002900
     25 H8           3.7830    -0.1300     3.8000 hc         1 YC8       0.027200
     26 H8A          3.8520    -1.4460     2.6200 hc         1 YC8       0.027200
     27 H9           3.4080    -1.7730     5.6100 hc         1 YC8       0.031200
     28 H9A          3.4770    -3.0890     4.4300 hc         1 YC8       0.031200
     29 H10          5.7210    -1.1250     5.0240 hc         1 YC8       0.014700
     30 H10A         5.7900    -2.4410     3.8440 hc         1 YC8       0.014700
     31 H12          5.7520    -1.5760     7.4030 ha         1 YC8       0.108000
     32 H13          6.3820    -3.1490     9.1950 ha         1 YC8       0.097000
     33 H14          6.8050    -5.5190     8.6620 ha         1 YC8       0.094000
     34 H15          6.5530    -6.3260     6.3460 ha         1 YC8       0.097000
     35 H16          6.0540    -4.9500     4.6430 ha         1 YC8       0.108000
     36 N2           1.3270    -0.3110     2.5320 ns         1 YC8      -0.004100
@<TRIPOS>BOND
     1     1     3 1   
     2     1     4 1   
     3     1     5 1   
     4     2     8 ar  
     5     2     9 ar  
     6     4     6 ar  
     7     4    10 ar  
     8     6     8 ar  
     9     6    22 1   
    10     7    11 2   
    11     8    23 1   
    12     9    10 ar  
    13     9    24 1   
    14    10    36 1   
    15    11    12 1   
    16    11    36 1   
    17    12    13 1   
    18    12    25 1   
    19    12    26 1   
    20    13    14 1   
    21    13    27 1   
    22    13    28 1   
    23    14    15 1   
    24    14    29 1   
    25    14    30 1   
    26    15    16 ar  
    27    15    20 ar  
    28    16    17 ar  
    29    16    31 1   
    30    17    18 ar  
    31    17    32 1   
    32    18    19 ar  
    33    18    33 1   
    34    19    20 ar  
    35    19    34 1   
    36    20    35 1   
    37    21    36 1   
@<TRIPOS>SUBSTRUCTURE
     1 YC8         1 TEMP              0 ****  ****    0 ROOT
