@<TRIPOS>MOLECULE
molecule
   57    58     1     0     0
SMALL
bcc


@<TRIPOS>ATOM
      1 NAA          0.0000     0.0000     0.0000 n2         1 YCF      -0.893100
      2 NAB          1.9910     0.0000     1.1910 nu         1 YCF      -0.710700
      3 NAC          1.9920     0.0010    -1.1920 nu         1 YCF      -0.621300
      4 NAD          1.2920     0.0020    -2.4050 n2         1 YCF      -0.376400
      5 NAE         -0.8810     0.0050    -8.4170 ns         1 YCF      -0.480100
      6 NAF         -1.1090     0.7550   -10.6150 ns         1 YCF      -0.493100
      7 NAG          0.8240     2.7760   -16.3640 n2         1 YCF      -0.409400
      8 NAH          1.3730     3.3900   -17.4960 nu         1 YCF      -0.561300
      9 NAI          0.2930     1.8790   -18.8900 n2         1 YCF      -0.388200
     10 NAJ          1.6200     3.5120   -19.8720 nz         1 YCF      -0.779600
     11 CAK          1.3040     0.0000     0.0000 c2         1 YCF       0.880100
     12 CAL          1.9410     0.0020    -3.5290 ce         1 YCF       0.376900
     13 CAM          3.4480     0.0030    -3.5280 c3         1 YCF      -0.170400
     14 CAN          1.2040     0.0030    -4.8050 ca         1 YCF      -0.121900
     15 CAO         -0.1940     0.0030    -4.8080 ca         1 YCF      -0.087500
     16 CAP         -0.8800     0.0040    -6.0030 ca         1 YCF      -0.144500
     17 CAQ         -0.1820     0.0040    -7.2060 ca         1 YCF       0.064600
     18 CAR          1.2080     0.0050    -7.2080 ca         1 YCF      -0.144500
     19 CAS          1.9000     0.0100    -6.0170 ca         1 YCF      -0.087500
     20 CAT         -0.3920     0.6770    -9.4770 c          1 YCF       0.785100
     21 CAU         -0.5620     1.3690   -11.7470 ca         1 YCF       0.118600
     22 CAV         -0.8600     0.8800   -13.0130 ca         1 YCF      -0.151500
     23 CAW         -0.3230     1.4810   -14.1290 ca         1 YCF      -0.067000
     24 CAX          0.5230     2.5850   -13.9880 ca         1 YCF      -0.185900
     25 CAY          0.8190     3.0740   -12.7130 ca         1 YCF      -0.067000
     26 CAZ          0.2740     2.4700   -11.6010 ca         1 YCF      -0.151500
     27 CBA          1.1000     3.2330   -15.1800 ce         1 YCF       0.470900
     28 CBB          2.0110     4.4220   -15.0240 c3         1 YCF      -0.191400
     29 CBC          1.0790     2.9060   -18.7560 c2         1 YCF       0.666100
     30 OBD          0.6970     1.2140    -9.4070 o          1 YCF      -0.635100
     31 OBE          1.2830    -0.0010     2.4180 oh         1 YCF      -0.284300
     32 OBF         -0.0090     1.3820   -20.1810 oh         1 YCF      -0.397500
     33 HNAA        -0.5000     0.0000    -0.8670 hn         1 YCF       0.418400
     34 HNAB         2.9920    -0.0010     1.1910 hn         1 YCF       0.443800
     35 HNAC         2.9920     0.0390    -1.1920 hn         1 YCF       0.410800
     36 HNAE        -1.7310    -0.5160    -8.5040 hn         1 YCF       0.324500
     37 HNAF        -2.0440     0.3990   -10.6420 hn         1 YCF       0.328500
     38 HNAH         1.9800     4.1790   -17.3930 hn         1 YCF       0.438800
     39 HNAJ         2.1990     4.2780   -19.5880 hn         1 YCF       0.471467
     40 HNAD         2.1710     2.8480   -20.3790 hn         1 YCF       0.471467
     41 HAM          3.8090    -0.7090    -2.7960 hc         1 YCF       0.053700
     42 HAMA         3.8080     0.9940    -3.2770 hc         1 YCF       0.053700
     43 HAMB         3.8090    -0.2740    -4.5110 hc         1 YCF       0.053700
     44 HAO         -0.7380     0.0020    -3.8710 ha         1 YCF       0.150000
     45 HAP         -1.9630     0.0040    -6.0060 ha         1 YCF       0.151500
     46 HAR          1.7480     0.0110    -8.1470 ha         1 YCF       0.151500
     47 HAS          2.9840     0.0110    -6.0190 ha         1 YCF       0.150000
     48 HAV         -1.5160     0.0240   -13.1230 ha         1 YCF       0.164500
     49 HAW         -0.5950     1.1300   -15.1180 ha         1 YCF       0.145500
     50 HAY          1.4340     3.9590   -12.6010 ha         1 YCF       0.145500
     51 HAZ          0.4670     2.8760   -10.6150 ha         1 YCF       0.164500
     52 HBB          2.2370     4.5690   -13.9750 hc         1 YCF       0.064700
     53 HBBA         2.9300     4.2470   -15.5700 hc         1 YCF       0.064700
     54 HBBB         1.5210     5.3060   -15.4160 hc         1 YCF       0.064700
     55 HOBE         1.8960    -0.0120     3.1340 ho         1 YCF       0.396000
     56 HOBF        -0.5900     0.6430   -20.1060 ho         1 YCF       0.484000
     57 HAJ3         0.8830     3.8510   -20.4580 hn         1 YCF       0.471467
@<TRIPOS>BOND
     1     1    11 2
     2     2    11 1
     3     2    31 1
     4     3     4 1
     5     3    11 1
     6     4    12 2
     7     5    17 1
     8     5    20 1
     9     6    20 1
    10     6    21 1
    11     7     8 1
    12     7    27 2
    13     8    29 1
    14     9    29 2
    15     9    32 1
    16    10    29 1
    17    12    13 1
    18    12    14 1
    19    14    15 ar
    20    14    19 ar
    21    15    16 ar
    22    16    17 ar
    23    17    18 ar
    24    18    19 ar
    25    20    30 2
    26    21    22 ar
    27    21    26 ar
    28    22    23 ar
    29    23    24 ar
    30    24    25 ar
    31    24    27 1
    32    25    26 ar
    33    27    28 1
    34     1    33 1
    35     2    34 1
    36     3    35 1
    37     5    36 1
    38     6    37 1
    39     8    38 1
    40    10    39 1
    41    10    40 1
    42    13    41 1
    43    13    42 1
    44    13    43 1
    45    15    44 1
    46    16    45 1
    47    18    46 1
    48    19    47 1
    49    22    48 1
    50    23    49 1
    51    25    50 1
    52    26    51 1
    53    28    52 1
    54    28    53 1
    55    28    54 1
    56    31    55 1
    57    32    56 1
    58    57    10 1
@<TRIPOS>SUBSTRUCTURE
     1 YCF         1 TEMP              0 ****  ****    0 ROOT
