@<TRIPOS>MOLECULE
YCF
   57    58     1     0     0
SMALL
bcc


@<TRIPOS>ATOM
      1 NAA          0.0000     0.0000     0.0000 n2         1 YCF      -0.771100
      2 NAB          1.9910     0.0000     1.1910 nu         1 YCF      -0.333700
      3 NAC          1.9920     0.0010    -1.1920 nu         1 YCF      -0.179300
      4 NAD          1.2920     0.0020    -2.4050 n2         1 YCF      -0.401400
      5 NAE         -0.8810     0.0050    -8.4170 ns         1 YCF      -0.029100
      6 NAF         -1.1090     0.7550   -10.6150 ns         1 YCF      -0.058100
      7 NAG          0.8240     2.7760   -16.3640 n2         1 YCF      -0.523400
      8 NAH          1.3730     3.3900   -17.4960 nu         1 YCF      -0.135300
      9 NAI          0.2930     1.8790   -18.8900 n2         1 YCF      -0.319200
     10 NAJ          1.6200     3.5120   -19.8720 nz         1 YCF       0.172400
     11 CAK          1.3040     0.0000     0.0000 c2         1 YCF       0.545100
     12 CAL          1.9410     0.0020    -3.5290 ce         1 YCF       0.330900
     13 CAM          3.4480     0.0030    -3.5280 c3         1 YCF      -0.062400
     14 CAN          1.2040     0.0030    -4.8050 ca         1 YCF      -0.113900
     15 CAO         -0.1940     0.0030    -4.8080 ca         1 YCF      -0.070000
     16 CAP         -0.8800     0.0040    -6.0030 ca         1 YCF      -0.117500
     17 CAQ         -0.1820     0.0040    -7.2060 ca         1 YCF      -0.097400
     18 CAR          1.2080     0.0050    -7.2080 ca         1 YCF      -0.117500
     19 CAS          1.9000     0.0100    -6.0170 ca         1 YCF      -0.070000
     20 CAT         -0.3920     0.6770    -9.4770 c          1 YCF       0.554100
     21 CAU         -0.5620     1.3690   -11.7470 ca         1 YCF      -0.021400
     22 CAV         -0.8600     0.8800   -13.0130 ca         1 YCF      -0.131000
     23 CAW         -0.3230     1.4810   -14.1290 ca         1 YCF      -0.035500
     24 CAX          0.5230     2.5850   -13.9880 ca         1 YCF      -0.209900
     25 CAY          0.8190     3.0740   -12.7130 ca         1 YCF      -0.035500
     26 CAZ          0.2740     2.4700   -11.6010 ca         1 YCF      -0.131000
     27 CBA          1.1000     3.2330   -15.1800 ce         1 YCF       0.496900
     28 CBB          2.0110     4.4220   -15.0240 c3         1 YCF      -0.089400
     29 CBC          1.0790     2.9060   -18.7560 c2         1 YCF       0.243100
     30 OBD          0.6970     1.2140    -9.4070 o          1 YCF      -0.686100
     31 OBE          1.2830    -0.0010     2.4180 oh         1 YCF      -0.408300
     32 OBF         -0.0090     1.3820   -20.1810 oh         1 YCF      -0.388500
     33 HNAA        -0.5000     0.0000     0.8670 hn         1 YCF       0.340400
     34 HNAB         2.9920    -0.0000     1.1910 hn         1 YCF       0.270800
     35 HNAC         2.9930     0.0380    -1.1920 hn         1 YCF       0.271800
     36 HNAE        -1.7340    -0.5120    -8.5020 hn         1 YCF       0.162500
     37 HNAF        -2.0420     0.3940   -10.6440 hn         1 YCF       0.169500
     38 HNAH         1.9630     4.1920   -17.3940 hn         1 YCF       0.278800
     39 HNAJ         2.2000     4.2770   -19.5880 hn         1 YCF       0.222133
     40 HNAD         2.1690     2.8470   -20.3790 hn         1 YCF       0.222133
     41 HAM          3.8090    -0.7340    -2.8220 hc         1 YCF       0.017367
     42 HAMA         3.8090    -0.2390    -4.5200 hc         1 YCF       0.017367
     43 HAMB         3.8080     0.9840    -3.2420 hc         1 YCF       0.017367
     44 HAO         -0.7380     0.0020    -3.8710 ha         1 YCF       0.125500
     45 HAP         -1.9630     0.0040    -6.0060 ha         1 YCF       0.125000
     46 HAR          1.7480     0.0110    -8.1470 ha         1 YCF       0.125000
     47 HAS          2.9840     0.0110    -6.0190 ha         1 YCF       0.125500
     48 HAV         -1.5160     0.0250   -13.1230 ha         1 YCF       0.137500
     49 HAW         -0.5950     1.1300   -15.1180 ha         1 YCF       0.115500
     50 HAY          1.4360     3.9580   -12.6010 ha         1 YCF       0.115500
     51 HAZ          0.4640     2.8780   -10.6160 ha         1 YCF       0.137500
     52 HBB          1.5300     5.3020   -15.4340 hc         1 YCF       0.030367
     53 HBBA         2.2210     4.5820   -13.9740 hc         1 YCF       0.030367
     54 HBBB         2.9380     4.2390   -15.5540 hc         1 YCF       0.030367
     55 HOBE         1.8960    -0.0050     3.1340 ho         1 YCF       0.406000
     56 HOBF        -0.5840     0.6380   -20.1050 ho         1 YCF       0.476000
     57 HAJ3         0.8830     3.8520   -20.4580 hn         1 YCF       0.222133
@<TRIPOS>BOND
     1     1    11 2   
     2     1    33 1   
     3     2    11 1   
     4     2    31 1   
     5     2    34 1   
     6     3     4 1   
     7     3    11 1   
     8     3    35 1   
     9     4    12 2   
    10     5    17 1   
    11     5    20 1   
    12     5    36 1   
    13     6    20 1   
    14     6    21 1   
    15     6    37 1   
    16     7     8 1   
    17     7    27 2   
    18     8    29 1   
    19     8    38 1   
    20     9    29 2   
    21     9    32 1   
    22    10    29 1   
    23    10    39 1   
    24    10    40 1   
    25    10    57 1   
    26    12    13 1   
    27    12    14 1   
    28    13    41 1   
    29    13    42 1   
    30    13    43 1   
    31    14    15 ar  
    32    14    19 ar  
    33    15    16 ar  
    34    15    44 1   
    35    16    17 ar  
    36    16    45 1   
    37    17    18 ar  
    38    18    19 ar  
    39    18    46 1   
    40    19    47 1   
    41    20    30 2   
    42    21    22 ar  
    43    21    26 ar  
    44    22    23 ar  
    45    22    48 1   
    46    23    24 ar  
    47    23    49 1   
    48    24    25 ar  
    49    24    27 1   
    50    25    26 ar  
    51    25    50 1   
    52    26    51 1   
    53    27    28 1   
    54    28    52 1   
    55    28    53 1   
    56    28    54 1   
    57    31    55 1   
    58    32    56 1   
@<TRIPOS>SUBSTRUCTURE
     1 YCF         1 TEMP              0 ****  ****    0 ROOT
