@<TRIPOS>MOLECULE
molecule
   43    43     1     0     0
SMALL
bcc


@<TRIPOS>ATOM
      1 Cl           0.0000     0.0000     0.0000 cl         1 YCL      -0.146400
      2 O1          12.7440    -1.0230     1.2590 o          1 YCL      -0.812800
      3 O2          12.3320    -0.9500     3.4380 o          1 YCL      -0.812800
      4 NAA          7.8870     1.2030     6.6490 nz         1 YCL      -0.719400
      5 NAC          1.4650     0.0000     2.4030 n2         1 YCL      -0.834100
      6 OAE          8.9100    -0.7480     6.3850 o          1 YCL      -0.379100
      7 OAF         10.1170    -0.3050     3.3180 o          1 YCL      -0.514100
      8 CAH         10.8360    -4.9410     1.6490 ca         1 YCL      -0.110000
      9 CAI         11.6850    -3.8530     1.7280 ca         1 YCL      -0.108000
     10 CAJ          9.5370    -4.8510     2.1160 ca         1 YCL      -0.164000
     11 CAK         11.2350    -2.6570     2.2800 ca         1 YCL      -0.008600
     12 CAL          9.0730    -3.6710     2.6680 ca         1 YCL      -0.125000
     13 CAM          5.6700    -0.0000     3.0520 c3         1 YCL      -0.084400
     14 CAN          4.1410     0.0000     3.0520 c3         1 YCL       0.140800
     15 CAO          6.1800    -0.0000     4.4950 c3         1 YCL      -0.098400
     16 CAP          1.8030     0.0000     0.0000 c3         1 YCL       0.026700
     17 NAR          3.6520    -0.0010     1.6710 nu         1 YCL      -0.864200
     18 NAS          8.1980    -1.2520     3.9110 ns         1 YCL      -0.583900
     19 CAU          8.2130     0.1240     5.9100 c          1 YCL       0.452100
     20 CAV          2.3050     0.0000     1.4210 c2         1 YCL       0.620200
     21 CAW          9.4210    -1.3010     3.3450 c          1 YCL       0.665700
     22 CAX          9.9130    -2.5650     2.7550 ca         1 YCL      -0.154600
     23 CAZ          7.7100    -0.0010     4.4950 c3         1 YCL       0.059700
     24 HNAA         7.7400     1.9880     6.0460 hn         1 YCL       0.480467
     25 HNAB         8.6310     1.4070     7.2870 hn         1 YCL       0.480467
     26 HNAC         1.7980     0.0000     3.3470 hn         1 YCL       0.392400
     27 HAH         11.1890    -5.8700     1.2190 ha         1 YCL       0.123000
     28 HAI         12.7010    -3.9320     1.3600 ha         1 YCL       0.159000
     29 HAJ          8.8800    -5.7090     2.0500 ha         1 YCL       0.117000
     30 HAL          8.0550    -3.6070     3.0320 ha         1 YCL       0.091000
     31 HAM          6.0310     0.8840     2.5420 hc         1 YCL       0.074700
     32 HAMA         6.0310    -0.8850     2.5420 hc         1 YCL       0.074700
     33 HAN          3.7800     0.8850     3.5630 h1         1 YCL       0.037200
     34 HANA         3.7800    -0.8840     3.5630 h1         1 YCL       0.037200
     35 HAO          5.8190     0.8840     5.0060 hc         1 YCL       0.044700
     36 HAOA         5.8190    -0.8850     5.0060 hc         1 YCL       0.044700
     37 HAP          2.1640    -0.8770    -0.5240 h1         1 YCL       0.083700
     38 HAPA         2.1640     0.8920    -0.4970 h1         1 YCL       0.083700
     39 HNAS         7.6380    -2.0800     3.9640 hn         1 YCL       0.331500
     40 HAZ          8.0710     0.8360     3.9090 h1         1 YCL       0.122700
     41 HAR          4.3880     0.6540     1.4950 hn         1 YCL       0.415800
     42 HAA3         7.4540     0.9050     7.5000 hn         1 YCL       0.480467
     43 C1          12.1380    -1.4910     2.3670 c          1 YCL       0.879200
@<TRIPOS>BOND
     1     1    16 1
     2    43     2 1
     3    43     3 1
     4    43    11 1
     5     4    19 1
     6     5    20 2
     7     6    19 2
     8     7    21 2
     9     8     9 ar
    10     8    10 ar
    11     9    11 ar
    12    10    12 ar
    13    11    22 ar
    14    12    22 ar
    15    13    14 1
    16    13    15 1
    17    14    17 1
    18    15    23 1
    19    16    20 1
    20    17    20 1
    21    18    21 1
    22    18    23 1
    23    19    23 1
    24    21    22 1
    25     4    24 1
    26     4    25 1
    27     5    26 1
    28     8    27 1
    29     9    28 1
    30    10    29 1
    31    12    30 1
    32    13    31 1
    33    13    32 1
    34    14    33 1
    35    14    34 1
    36    15    35 1
    37    15    36 1
    38    16    37 1
    39    16    38 1
    40    18    39 1
    41    23    40 1
    42    17    41 1
    43    42     4 1
@<TRIPOS>SUBSTRUCTURE
     1 YCL         1 TEMP              0 ****  ****    0 ROOT
