@<TRIPOS>MOLECULE
YCL
   43    43     1     0     0
SMALL
bcc


@<TRIPOS>ATOM
      1 Cl           0.0000     0.0000     0.0000 cl         1 YCL      -0.103400
      2 O1          12.7440    -1.0230     1.2590 o          1 YCL      -0.864800
      3 O2          12.3320    -0.9500     3.4380 o          1 YCL      -0.864800
      4 NAA          7.8870     1.2030     6.6490 nz         1 YCL       0.127600
      5 NAC          1.4650     0.0000     2.4030 n2         1 YCL      -0.744100
      6 OAE          8.9100    -0.7480     6.3850 o          1 YCL      -0.378100
      7 OAF         10.1170    -0.3050     3.3180 o          1 YCL      -0.541100
      8 CAH         10.8360    -4.9410     1.6490 ca         1 YCL      -0.087000
      9 CAI         11.6850    -3.8530     1.7280 ca         1 YCL      -0.077000
     10 CAJ          9.5370    -4.8510     2.1160 ca         1 YCL      -0.141000
     11 CAK         11.2350    -2.6570     2.2800 ca         1 YCL       0.001400
     12 CAL          9.0730    -3.6710     2.6680 ca         1 YCL      -0.109000
     13 CAM          5.6700    -0.0000     3.0520 c3         1 YCL      -0.031400
     14 CAN          4.1410     0.0000     3.0520 c3         1 YCL       0.117800
     15 CAO          6.1800    -0.0000     4.4950 c3         1 YCL      -0.033400
     16 CAP          1.8030     0.0000     0.0000 c3         1 YCL       0.004700
     17 NAR          3.6520    -0.0010     1.6710 nu         1 YCL      -0.488200
     18 NAS          8.1980    -1.2520     3.9110 ns         1 YCL      -0.224900
     19 CAU          8.2130     0.1240     5.9100 c          1 YCL       0.286100
     20 CAV          2.3050     0.0000     1.4210 c2         1 YCL       0.449200
     21 CAW          9.4210    -1.3010     3.3450 c          1 YCL       0.591700
     22 CAX          9.9130    -2.5650     2.7550 ca         1 YCL      -0.164600
     23 CAZ          7.7100    -0.0010     4.4950 c3         1 YCL      -0.031300
     24 HNAA         7.7400     1.9880     6.0460 hn         1 YCL       0.259800
     25 HNAB         8.6310     1.4070     7.2870 hn         1 YCL       0.259800
     26 HNAC         0.4810     0.0010     2.2200 hn         1 YCL       0.352400
     27 HAH         11.1890    -5.8700     1.2190 ha         1 YCL       0.094000
     28 HAI         12.7010    -3.9320     1.3600 ha         1 YCL       0.126000
     29 HAJ          8.8800    -5.7090     2.0500 ha         1 YCL       0.093000
     30 HAL          8.0550    -3.6070     3.0320 ha         1 YCL       0.074000
     31 HAM          6.0310     0.8840     2.5420 hc         1 YCL       0.038200
     32 HAMA         6.0310    -0.8850     2.5420 hc         1 YCL       0.038200
     33 HAN          3.7800     0.8850     3.5620 h1         1 YCL       0.020700
     34 HANA         3.7800    -0.8840     3.5630 h1         1 YCL       0.020700
     35 HAO          5.8190    -0.8850     5.0060 hc         1 YCL       0.012700
     36 HAOA         5.8190     0.8840     5.0060 hc         1 YCL       0.012700
     37 HAP          2.1640     0.8770    -0.5240 h1         1 YCL       0.042700
     38 HAPA         2.1640    -0.8920    -0.4970 h1         1 YCL       0.042700
     39 HNAS         7.6380    -2.0800     3.9630 hn         1 YCL       0.200500
     40 HAZ          8.0710     0.8360     3.9090 h1         1 YCL       0.091700
     41 HAR          4.3880     0.6540     1.4950 hn         1 YCL       0.295800
     42 HAA3         7.4540     0.9050     7.5000 hn         1 YCL       0.259800
     43 C1          12.1380    -1.4910     2.3670 c          1 YCL       0.969200
@<TRIPOS>BOND
     1     1    16 1   
     2     2    43 1   
     3     3    43 1   
     4     4    19 1   
     5     4    24 1   
     6     4    25 1   
     7     4    42 1   
     8     5    20 2   
     9     5    26 1   
    10     6    19 2   
    11     7    21 2   
    12     8     9 ar  
    13     8    10 ar  
    14     8    27 1   
    15     9    11 ar  
    16     9    28 1   
    17    10    12 ar  
    18    10    29 1   
    19    11    22 ar  
    20    11    43 1   
    21    12    22 ar  
    22    12    30 1   
    23    13    14 1   
    24    13    15 1   
    25    13    31 1   
    26    13    32 1   
    27    14    17 1   
    28    14    33 1   
    29    14    34 1   
    30    15    23 1   
    31    15    35 1   
    32    15    36 1   
    33    16    20 1   
    34    16    37 1   
    35    16    38 1   
    36    17    20 1   
    37    17    41 1   
    38    18    21 1   
    39    18    23 1   
    40    18    39 1   
    41    19    23 1   
    42    21    22 1   
    43    23    40 1   
@<TRIPOS>SUBSTRUCTURE
     1 YCL         1 TEMP              0 ****  ****    0 ROOT
