@<TRIPOS>MOLECULE
molecule
   32    32     1     0     0
SMALL
bcc


@<TRIPOS>ATOM
      1 C1           0.0000     0.0000     0.0000 c3         1 YCN       0.157675
      2 N1           1.4690     0.0000     0.0000 n7         1 YCN      -0.824950
      3 C2          -0.5100     1.1610    -0.8580 c3         1 YCN       0.157675
      4 N2          -1.3770     2.0250    -0.0460 n7         1 YCN      -0.824950
      5 C3          -0.9660     3.4310    -0.1510 c3         1 YCN       0.157675
      6 N3           0.5750     4.5350     1.3990 n7         1 YCN      -0.824950
      7 C4          -0.7920     4.0180     1.2510 c3         1 YCN       0.157675
      8 N4           2.6410     1.9910     2.6430 n7         1 YCN      -0.824950
      9 C5           1.2200     3.9840     2.5980 c3         1 YCN       0.157675
     10 C6           2.5810     3.3970     2.2210 c3         1 YCN       0.157675
     11 C7           3.0250     1.1210     1.5220 c3         1 YCN       0.157675
     12 C8           1.9960     0.0000     1.3710 c3         1 YCN       0.157675
     13 H1          -0.3610     0.1150     1.0150 h1         1 YCN       0.041138
     14 H1A         -0.3610    -0.9360    -0.4080 h1         1 YCN       0.041138
     15 HN1          1.8030    -0.8090    -0.4860 hn         1 YCN       0.345800
     16 H2          -1.0720     0.7710    -1.6970 h1         1 YCN       0.041138
     17 H2A          0.3320     1.7360    -1.2240 h1         1 YCN       0.041138
     18 HN2         -2.3250     1.9310    -0.3540 hn         1 YCN       0.345800
     19 H3          -1.7250     3.9910    -0.6840 h1         1 YCN       0.041138
     20 H3A         -0.0270     3.4940    -0.6880 h1         1 YCN       0.041138
     21 HN3          0.5500     5.5340     1.4630 hn         1 YCN       0.345800
     22 H4          -1.5000     4.8250     1.3950 h1         1 YCN       0.041138
     23 H4A         -0.9680     3.2470     1.9900 h1         1 YCN       0.041138
     24 HN4          3.3060     1.8930     3.3840 hn         1 YCN       0.345800
     25 H5           0.5950     3.2060     3.0190 h1         1 YCN       0.041138
     26 H5A          1.3570     4.7720     3.3290 h1         1 YCN       0.041138
     27 H6           3.3660     3.9560     2.7160 h1         1 YCN       0.041138
     28 H6A          2.7160     3.4580     1.1480 h1         1 YCN       0.041138
     29 H7           3.0610     1.7030     0.6090 h1         1 YCN       0.041138
     30 H7A          4.0000     0.6920     1.7160 h1         1 YCN       0.041138
     31 H8           1.1840     0.1590     2.0700 h1         1 YCN       0.041138
     32 H8A          2.4680    -0.9530     1.5770 h1         1 YCN       0.041138
@<TRIPOS>BOND
     1     1     2 1
     2     1     3 1
     3     2    12 1
     4     3     4 1
     5     4     5 1
     6     5     7 1
     7     6     7 1
     8     6     9 1
     9     8    10 1
    10     8    11 1
    11     9    10 1
    12    11    12 1
    13     1    13 1
    14     1    14 1
    15     2    15 1
    16     3    16 1
    17     3    17 1
    18     4    18 1
    19     5    19 1
    20     5    20 1
    21     6    21 1
    22     7    22 1
    23     7    23 1
    24     8    24 1
    25     9    25 1
    26     9    26 1
    27    10    27 1
    28    10    28 1
    29    11    29 1
    30    11    30 1
    31    12    31 1
    32    12    32 1
@<TRIPOS>SUBSTRUCTURE
     1 YCN         1 TEMP              0 ****  ****    0 ROOT
