@<TRIPOS>MOLECULE
YCN
   32    32     1     0     0
SMALL
bcc


@<TRIPOS>ATOM
      1 C1           0.0000     0.0000     0.0000 c3         1 YCN       0.131800
      2 N1           1.4690     0.0000     0.0000 n7         1 YCN      -0.576450
      3 C2          -0.5100     1.1610    -0.8580 c3         1 YCN       0.131800
      4 N2          -1.3770     2.0250    -0.0460 n7         1 YCN      -0.576450
      5 C3          -0.9660     3.4310    -0.1510 c3         1 YCN       0.131800
      6 N3           0.5750     4.5350     1.3990 n7         1 YCN      -0.576450
      7 C4          -0.7920     4.0180     1.2510 c3         1 YCN       0.131800
      8 N4           2.6410     1.9910     2.6430 n7         1 YCN      -0.576450
      9 C5           1.2200     3.9840     2.5980 c3         1 YCN       0.131800
     10 C6           2.5810     3.3970     2.2210 c3         1 YCN       0.131800
     11 C7           3.0250     1.1210     1.5220 c3         1 YCN       0.131800
     12 C8           1.9960     0.0000     1.3710 c3         1 YCN       0.131800
     13 H1          -0.3610     0.1150     1.0150 h1         1 YCN       0.017325
     14 H1A         -0.3610    -0.9360    -0.4080 h1         1 YCN       0.017325
     15 HN1          1.8030    -0.8090    -0.4860 hn         1 YCN       0.243800
     16 H2          -1.0720     0.7710    -1.6970 h1         1 YCN       0.017325
     17 H2A          0.3320     1.7360    -1.2240 h1         1 YCN       0.017325
     18 HN2         -2.3250     1.9310    -0.3540 hn         1 YCN       0.243800
     19 H3          -1.7250     3.9910    -0.6840 h1         1 YCN       0.017325
     20 H3A         -0.0270     3.4940    -0.6880 h1         1 YCN       0.017325
     21 HN3          0.5500     5.5340     1.4630 hn         1 YCN       0.243800
     22 H4          -1.5000     4.8250     1.3950 h1         1 YCN       0.017325
     23 H4A         -0.9680     3.2470     1.9900 h1         1 YCN       0.017325
     24 HN4          3.3060     1.8930     3.3840 hn         1 YCN       0.243800
     25 H5           0.5950     3.2060     3.0190 h1         1 YCN       0.017325
     26 H5A          1.3570     4.7720     3.3290 h1         1 YCN       0.017325
     27 H6           3.3660     3.9560     2.7160 h1         1 YCN       0.017325
     28 H6A          2.7160     3.4580     1.1480 h1         1 YCN       0.017325
     29 H7           3.0610     1.7030     0.6090 h1         1 YCN       0.017325
     30 H7A          4.0000     0.6920     1.7160 h1         1 YCN       0.017325
     31 H8           1.1840     0.1590     2.0700 h1         1 YCN       0.017325
     32 H8A          2.4680    -0.9530     1.5770 h1         1 YCN       0.017325
@<TRIPOS>BOND
     1     1     2 1   
     2     1     3 1   
     3     1    13 1   
     4     1    14 1   
     5     2    12 1   
     6     2    15 1   
     7     3     4 1   
     8     3    16 1   
     9     3    17 1   
    10     4     5 1   
    11     4    18 1   
    12     5     7 1   
    13     5    19 1   
    14     5    20 1   
    15     6     7 1   
    16     6     9 1   
    17     6    21 1   
    18     7    22 1   
    19     7    23 1   
    20     8    10 1   
    21     8    11 1   
    22     8    24 1   
    23     9    10 1   
    24     9    25 1   
    25     9    26 1   
    26    10    27 1   
    27    10    28 1   
    28    11    12 1   
    29    11    29 1   
    30    11    30 1   
    31    12    31 1   
    32    12    32 1   
@<TRIPOS>SUBSTRUCTURE
     1 YCN         1 TEMP              0 ****  ****    0 ROOT
