@<TRIPOS>MOLECULE
YCU
   53    54     1     0     0
SMALL
bcc


@<TRIPOS>ATOM
      1 S1           0.0000     0.0000     0.0000 sy         1 YCU       1.072900
      2 C2           1.7630     0.0000     0.0000 cc         1 YCU      -0.042600
      3 N3          -0.4900    -1.5810     0.0010 ns         1 YCU      -0.318300
      4 S4           2.7770     0.0000     1.4380 ss         1 YCU      -0.116800
      5 C5          -0.2190    -2.3700     1.0580 c          1 YCU       0.580100
      6 C6          -0.2460    -4.5030     2.1040 ca         1 YCU       0.432200
      7 C7           0.7860    -4.7750     4.1570 ca         1 YCU       0.448200
      8 C8           2.5320    -0.0060    -1.0900 cd         1 YCU       0.002000
      9 N9           0.4120    -4.0090     3.1420 nb         1 YCU      -0.567000
     10 C10          4.2310    -0.0000     0.4480 cc         1 YCU       0.034600
     11 N11         -0.6180    -3.6580     1.0590 ns         1 YCU      -0.122400
     12 N12          1.4760    -4.2110     5.2290 ns         1 YCU      -0.131400
     13 C13          3.8930    -0.0050    -0.8430 cd         1 YCU      -0.162300
     14 C14          1.6540    -2.8770     5.2880 c          1 YCU       0.526100
     15 C15         -0.5640    -5.8520     2.0410 ca         1 YCU      -0.357300
     16 C16          0.5070    -6.1330     4.1600 ca         1 YCU      -0.426300
     17 O17         -0.4010     0.5460     1.2500 o          1 YCU      -0.560300
     18 O18         -0.4010     0.5450    -1.2500 o          1 YCU      -0.560300
     19 C19         -0.1830    -6.6880     3.0860 ca         1 YCU       0.237100
     20 O20          0.3860    -1.9220     2.0120 o          1 YCU      -0.536100
     21 O21          1.2950    -2.1740     4.3620 o          1 YCU      -0.577100
     22 N22          2.2310    -2.3210     6.3720 ns         1 YCU      -0.230900
     23 C23          5.6410    -0.0010     0.9770 c3         1 YCU       0.054900
     24 O24         -0.4790    -8.0120     3.0590 os         1 YCU      -0.303900
     25 C25          4.9170    -0.0110    -1.9480 c3         1 YCU       0.083200
     26 O26          7.4570     1.4410     1.6590 os         1 YCU      -0.422600
     27 C27          6.1180     1.4410     1.1570 c3         1 YCU       0.209400
     28 C28          2.4250    -0.8710     6.4360 c3         1 YCU       0.105300
     29 C29         -0.0490    -8.7960     4.1740 c3         1 YCU       0.246700
     30 C30          8.0020     2.7460     1.8630 c3         1 YCU       0.257700
     31 H3          -1.0110    -1.9440    -0.7730 hn         1 YCU       0.217500
     32 H8           2.1210    -0.0100    -2.0920 ha         1 YCU       0.128000
     33 H11         -1.1890    -4.0050     0.3140 hn         1 YCU       0.163500
     34 H15         -1.1020    -6.2490     1.1900 ha         1 YCU       0.127000
     35 H12          1.7840    -4.7900     5.9850 hn         1 YCU       0.157500
     36 H16          0.8160    -6.7550     4.9920 ha         1 YCU       0.131000
     37 H231         6.2900    -0.5120     0.2750 hc         1 YCU       0.033200
     38 H232         5.6680    -0.5130     1.9320 hc         1 YCU       0.033200
     39 H251         4.4230    -0.1770    -2.8980 hc         1 YCU       0.008033
     40 H252         5.4300     0.9430    -1.9700 hc         1 YCU       0.008033
     41 H253         5.6350    -0.8030    -1.7710 hc         1 YCU       0.008033
     42 H22          2.5270    -2.8990     7.1320 hn         1 YCU       0.155500
     43 H281         3.0820    -0.5580     5.6340 h1         1 YCU       0.007700
     44 H282         1.4680    -0.3730     6.3330 h1         1 YCU       0.007700
     45 H283         2.8670    -0.6080     7.3890 h1         1 YCU       0.007700
     46 H271         6.0910     1.9520     0.2020 h1         1 YCU      -0.002300
     47 H272         5.4700     1.9510     1.8590 h1         1 YCU      -0.002300
     48 H291        -0.4780    -8.3940     5.0840 h1         1 YCU      -0.001967
     49 H292        -0.3740    -9.8200     4.0430 h1         1 YCU      -0.001967
     50 H293         1.0320    -8.7660     4.2410 h1         1 YCU      -0.001967
     51 H301         8.0280     3.2780     0.9200 h1         1 YCU      -0.013300
     52 H302         9.0070     2.6600     2.2580 h1         1 YCU      -0.013300
     53 H303         7.3830     3.2890     2.5670 h1         1 YCU      -0.013300
@<TRIPOS>BOND
     1     1     2 1   
     2     1     3 1   
     3     1    17 2   
     4     1    18 2   
     5     2     4 1   
     6     2     8 2   
     7     3     5 1   
     8     3    31 1   
     9     4    10 1   
    10     5    11 1   
    11     5    20 2   
    12     6     9 ar  
    13     6    11 1   
    14     6    15 ar  
    15     7     9 ar  
    16     7    12 1   
    17     7    16 ar  
    18     8    13 1   
    19     8    32 1   
    20    10    13 2   
    21    10    23 1   
    22    11    33 1   
    23    12    14 1   
    24    12    35 1   
    25    13    25 1   
    26    14    21 2   
    27    14    22 1   
    28    15    19 ar  
    29    15    34 1   
    30    16    19 ar  
    31    16    36 1   
    32    19    24 1   
    33    22    28 1   
    34    22    42 1   
    35    23    27 1   
    36    23    37 1   
    37    23    38 1   
    38    24    29 1   
    39    25    39 1   
    40    25    40 1   
    41    25    41 1   
    42    26    27 1   
    43    26    30 1   
    44    27    46 1   
    45    27    47 1   
    46    28    43 1   
    47    28    44 1   
    48    28    45 1   
    49    29    48 1   
    50    29    49 1   
    51    29    50 1   
    52    30    51 1   
    53    30    52 1   
    54    30    53 1   
@<TRIPOS>SUBSTRUCTURE
     1 YCU         1 TEMP              0 ****  ****    0 ROOT
