@<TRIPOS>MOLECULE
YD3
   70    74     1     0     0
SMALL
bcc


@<TRIPOS>ATOM
      1 O3           0.0000     0.0000     0.0000 o          1 YD3      -0.694500
      2 C22          1.2190     0.0000     0.0000 c          1 YD3       0.594700
      3 N3           1.8840     0.0000     1.1700 ns         1 YD3       0.047900
      4 C23          1.9140    -0.0050    -1.2290 cc         1 YD3      -0.182400
      5 C24          1.1460    -0.0100    -2.5260 c3         1 YD3       0.076100
      6 C25          3.2700    -0.0040    -1.2470 cd         1 YD3      -0.053200
      7 C26          3.9780     0.0010    -0.0190 ca         1 YD3      -0.053800
      8 C6           5.3890     0.0030     0.0030 cp         1 YD3      -0.044000
      9 C4           6.1540    -0.0020    -1.2660 cp         1 YD3      -0.137300
     10 C3           5.8590    -0.9260    -2.2680 ca         1 YD3       0.390200
     11 N            6.5380    -0.9300    -3.3960 nb         1 YD3      -0.575000
     12 C2           7.5150    -0.0720    -3.6240 ca         1 YD3       0.398200
     13 C5           7.1800     0.9240    -1.4810 ca         1 YD3      -0.067000
     14 C1           7.8670     0.8750    -2.6810 ca         1 YD3      -0.205600
     15 C            8.9850     1.8470    -2.9580 c3         1 YD3       0.070200
     16 C21          3.2640     0.0020     1.1910 ca         1 YD3      -0.142400
     17 C9           3.9600     0.0010     2.4040 ca         1 YD3       0.037600
     18 C8           5.3450     0.0020     2.4080 ca         1 YD3      -0.169000
     19 C7           6.0570     0.0080     1.2200 ca         1 YD3      -0.064000
     20 N1           3.2570    -0.0010     3.6110 nu         1 YD3      -0.416600
     21 C10          3.9860    -0.0000     4.8830 c3         1 YD3       0.131500
     22 C14          3.1050     0.6090     5.9770 c3         1 YD3       0.171100
     23 C13          3.8480     0.5500     7.3140 c3         1 YD3       0.119800
     24 N2           4.1670    -0.8460     7.6370 n7         1 YD3      -0.576200
     25 C12          5.0500    -1.4380     6.6250 c3         1 YD3       0.149800
     26 C11          4.3440    -1.4380     5.2670 c3         1 YD3      -0.050400
     27 O            2.8130     1.9700     5.6520 os         1 YD3      -0.408600
     28 C15          1.5530     2.4280     6.1460 c3         1 YD3       0.215400
     29 C16          1.3470     3.8880     5.7420 c3         1 YD3      -0.076700
     30 C20          0.0600     4.4090     6.3750 c3         1 YD3      -0.000400
     31 C19         -0.0340     5.9260     6.1980 c3         1 YD3      -0.004100
     32 S           -0.1410     6.3090     4.4260 s6         1 YD3       0.790000
     33 O1           0.0370     7.7080     4.2500 o          1 YD3      -0.582800
     34 O2          -1.3020     5.6850     3.8950 o          1 YD3      -0.582800
     35 C18          1.3260     5.4500     3.7860 c3         1 YD3      -0.004100
     36 C17          1.2750     3.9840     4.2210 c3         1 YD3      -0.000400
     37 H3           1.3740    -0.0060     2.0310 hn         1 YD3       0.169500
     38 H241         0.8530    -1.0240    -2.7680 hc         1 YD3       0.014700
     39 H242         0.2620     0.6070    -2.4240 hc         1 YD3       0.014700
     40 H243         1.7720     0.3830    -3.3180 hc         1 YD3       0.014700
     41 H25          3.8050    -0.0080    -2.1880 ha         1 YD3       0.133000
     42 H7           7.1400     0.0080     1.2410 ha         1 YD3       0.108000
     43 HA           5.0640    -1.6460    -2.1170 h4         1 YD3      -0.007900
     44 H5           7.4360     1.6560    -0.7240 ha         1 YD3       0.117000
     45 H2           8.0500    -0.1110    -4.5650 h4         1 YD3      -0.016900
     46 HC1          9.1340     1.9300    -4.0270 hc         1 YD3       0.009700
     47 HC2          9.8970     1.4900    -2.4930 hc         1 YD3       0.009700
     48 HC3          8.7280     2.8180    -2.5520 hc         1 YD3       0.009700
     49 H8           5.8780     0.0050     3.3510 ha         1 YD3       0.120000
     50 H1           2.2570    -0.0260     3.6080 hn         1 YD3       0.291800
     51 H10          4.8930     0.5830     4.7850 h1         1 YD3       0.051700
     52 H14          2.1830     0.0450     6.0530 h1         1 YD3       0.025700
     53 H111         5.0030    -1.8580     4.5170 hc         1 YD3       0.032700
     54 H112         3.4380    -2.0300     5.3320 hc         1 YD3       0.032700
     55 H131         3.2200     0.9650     8.0930 h1         1 YD3       0.016200
     56 H132         4.7660     1.1210     7.2400 h1         1 YD3       0.016200
     57 HB           4.6110    -0.8880     8.5330 hn         1 YD3       0.257800
     58 H121         5.2890    -2.4560     6.9070 h1         1 YD3       0.009700
     59 H122         5.9600    -0.8540     6.5560 h1         1 YD3       0.009700
     60 H151         1.5370     2.3460     7.2260 h1         1 YD3      -0.001800
     61 H152         0.7590     1.8220     5.7260 h1         1 YD3      -0.001800
     62 H16          2.1820     4.4820     6.0950 hc         1 YD3       0.040700
     63 H201         0.0590     4.1710     7.4320 hc         1 YD3       0.034450
     64 H202        -0.7900     3.9390     5.8950 hc         1 YD3       0.034450
     65 H171         2.1140     3.4530     3.7880 hc         1 YD3       0.034450
     66 H172         0.3480     3.5410     3.8780 hc         1 YD3       0.034450
     67 H191         0.8490     6.3950     6.6160 h1         1 YD3       0.070700
     68 H192        -0.9200     6.2950     6.7020 h1         1 YD3       0.070700
     69 H181         1.3350     5.5060     2.7040 h1         1 YD3       0.070700
     70 H182         2.2190     5.9150     4.1850 h1         1 YD3       0.070700
@<TRIPOS>BOND
     1     1     2 2   
     2     2     3 1   
     3     2     4 1   
     4     3    16 1   
     5     3    37 1   
     6     4     5 1   
     7     4     6 2   
     8     5    38 1   
     9     5    39 1   
    10     5    40 1   
    11     6     7 1   
    12     6    41 1   
    13     7     8 ar  
    14     7    16 ar  
    15     8     9 1   
    16     8    19 ar  
    17     9    10 ar  
    18     9    13 ar  
    19    10    11 ar  
    20    10    43 1   
    21    11    12 ar  
    22    12    14 ar  
    23    12    45 1   
    24    13    14 ar  
    25    13    44 1   
    26    14    15 1   
    27    15    46 1   
    28    15    47 1   
    29    15    48 1   
    30    16    17 ar  
    31    17    18 ar  
    32    17    20 1   
    33    18    19 ar  
    34    18    49 1   
    35    19    42 1   
    36    20    21 1   
    37    20    50 1   
    38    21    22 1   
    39    21    26 1   
    40    21    51 1   
    41    22    23 1   
    42    22    27 1   
    43    22    52 1   
    44    23    24 1   
    45    23    55 1   
    46    23    56 1   
    47    24    25 1   
    48    24    57 1   
    49    25    26 1   
    50    25    58 1   
    51    25    59 1   
    52    26    53 1   
    53    26    54 1   
    54    27    28 1   
    55    28    29 1   
    56    28    60 1   
    57    28    61 1   
    58    29    30 1   
    59    29    36 1   
    60    29    62 1   
    61    30    31 1   
    62    30    63 1   
    63    30    64 1   
    64    31    32 1   
    65    31    67 1   
    66    31    68 1   
    67    32    33 2   
    68    32    34 2   
    69    32    35 1   
    70    35    36 1   
    71    35    69 1   
    72    35    70 1   
    73    36    65 1   
    74    36    66 1   
@<TRIPOS>SUBSTRUCTURE
     1 YD3         1 TEMP              0 ****  ****    0 ROOT
