@<TRIPOS>MOLECULE
molecule
   46    47     1     0     0
SMALL
bcc


@<TRIPOS>ATOM
      1 S01          0.0000     0.0000     0.0000 ss         1 YDI       0.199200
      2 C02          1.7050     0.0000     0.0000 cc         1 YDI       0.060500
      3 C03          2.1840     0.0000     1.2880 cd         1 YDI      -0.255600
      4 C04          1.1810     0.0010     2.2610 cd         1 YDI      -0.192000
      5 C05         -0.0610     0.0010     1.7560 cc         1 YDI       0.086900
      6 N06          2.4960    -0.0010    -1.1370 ns         1 YDI      -0.402100
      7 C07          1.9220     0.0000    -2.3570 c          1 YDI       0.586100
      8 N08          2.6910    -0.0000    -3.4630 nz         1 YDI      -0.664400
      9 O09          0.7100     0.0010    -2.4580 o          1 YDI      -0.470100
     10 C10          3.6150     0.0000     1.6110 c          1 YDI       0.554700
     11 O11          4.4410    -0.0010     0.7170 o          1 YDI      -0.501100
     12 N12          4.0150    -0.0000     2.8970 nz         1 YDI      -0.672400
     13 C14         -8.1410    -1.1320     6.8310 c3         1 YDI       0.147600
     14 N15         -6.7030    -1.2450     6.5500 n3         1 YDI      -0.730600
     15 C16         -6.0010     0.0030     6.8830 c3         1 YDI       0.162800
     16 C17         -4.6200     0.0020     6.2270 c3         1 YDI       0.133400
     17 C19         -1.3010     0.0010     2.5600 ca         1 YDI      -0.135000
     18 C20         -2.5460     0.0010     1.9260 ca         1 YDI      -0.051500
     19 C21         -3.7000     0.0010     2.6800 ca         1 YDI      -0.185000
     20 C22         -3.6270     0.0010     4.0660 ca         1 YDI       0.212100
     21 C2          -6.1150    -2.3860     7.2630 c3         1 YDI       0.147600
     22 C23         -2.3920     0.0010     4.6990 ca         1 YDI      -0.185000
     23 C24         -1.2320    -0.0040     3.9540 ca         1 YDI      -0.051500
     24 O1          -4.7680     0.0020     4.8050 os         1 YDI      -0.278900
     25 H06          3.4930     0.0110    -1.0530 hn         1 YDI       0.370500
     26 H04          1.3870     0.0010     3.3240 ha         1 YDI       0.156000
     27 H081         3.2610     0.8220    -3.4730 hn         1 YDI       0.494133
     28 H082         3.2760    -0.8120    -3.4620 hn         1 YDI       0.494133
     29 H121         3.6640     0.8170     3.3560 hn         1 YDI       0.487800
     30 H122         3.6630    -0.8180     3.3560 hn         1 YDI       0.487800
     31 H141        -8.2900    -0.9690     7.8910 h1         1 YDI       0.038367
     32 H142        -8.5530    -0.2970     6.2760 h1         1 YDI       0.038367
     33 H143        -8.6400    -2.0450     6.5320 h1         1 YDI       0.038367
     34 H161        -6.5740     0.8470     6.5190 h1         1 YDI       0.058700
     35 H162        -5.8900     0.0780     7.9580 h1         1 YDI       0.058700
     36 H21C        -5.3470    -2.8390     6.6480 h1         1 YDI       0.038367
     37 H22C        -6.8870    -3.1160     7.4730 h1         1 YDI       0.038367
     38 H23C        -5.6790    -2.0440     8.1940 h1         1 YDI       0.038367
     39 H171        -4.0750     0.8870     6.5330 h1         1 YDI       0.041700
     40 H172        -4.0750    -0.8820     6.5340 h1         1 YDI       0.041700
     41 H20         -2.6040     0.0010     0.8450 ha         1 YDI       0.124500
     42 H24         -0.2690    -0.0040     4.4490 ha         1 YDI       0.124500
     43 H21         -4.6660     0.0010     2.1900 ha         1 YDI       0.167000
     44 H23         -2.3390    -0.0010     5.7820 ha         1 YDI       0.167000
     45 H083         2.1070    -0.0100    -4.2760 hn         1 YDI       0.494133
     46 H123         5.0150    -0.0090     2.9360 hn         1 YDI       0.487800
@<TRIPOS>BOND
     1     1     2 1
     2     1     5 1
     3     2     3 2
     4     2     6 1
     5     3     4 1
     6     3    10 1
     7     4     5 2
     8     5    17 1
     9     6     7 1
    10     7     8 1
    11     7     9 2
    12    10    11 2
    13    10    12 1
    14    13    14 1
    15    14    15 1
    16    14    21 1
    17    15    16 1
    18    16    24 1
    19    17    18 ar
    20    17    23 ar
    21    18    19 ar
    22    19    20 ar
    23    20    22 ar
    24    20    24 1
    25    22    23 ar
    26     6    25 1
    27     4    26 1
    28     8    27 1
    29     8    28 1
    30    12    29 1
    31    12    30 1
    32    13    31 1
    33    13    32 1
    34    13    33 1
    35    15    34 1
    36    15    35 1
    37    21    36 1
    38    21    37 1
    39    21    38 1
    40    16    39 1
    41    16    40 1
    42    18    41 1
    43    23    42 1
    44    19    43 1
    45    22    44 1
    46    45     8 1
    47    46    12 1
@<TRIPOS>SUBSTRUCTURE
     1 YDI         1 TEMP              0 ****  ****    0 ROOT
