@<TRIPOS>MOLECULE
molecule
   45    47     1     0     0
SMALL
bcc


@<TRIPOS>ATOM
      1 C1           0.0000     0.0000     0.0000 ca         1 YDJ      -0.091000
      2 C2           1.3800     0.0000     0.0000 ca         1 YDJ      -0.125000
      3 C3           2.0760     0.0000     1.2100 ca         1 YDJ      -0.020000
      4 C4           1.3710     0.0000     2.4150 ca         1 YDJ      -0.143000
      5 C5          -0.0110    -0.0000     2.4010 ca         1 YDJ       0.142900
      6 C6          -0.6950    -0.0010     1.1960 ca         1 YDJ      -0.139000
      7 F1          -0.6970    -0.0010     3.5660 f          1 YDJ      -0.127900
      8 C7           3.5540     0.0010     1.2160 cc         1 YDJ       0.083900
      9 C8           4.3320     0.0010     2.3340 cd         1 YDJ      -0.204000
     10 C9           5.6850    -0.0000     2.0940 cd         1 YDJ       0.079600
     11 C10          6.0270    -0.0010     0.7640 cc         1 YDJ      -0.163700
     12 S1           4.5690    -0.0070    -0.2200 ss         1 YDJ      -0.009800
     13 C11          7.3510    -0.0010     0.2600 c          1 YDJ       0.719700
     14 O1           8.2950    -0.0000     1.0300 o          1 YDJ      -0.662100
     15 N1           7.5660    -0.0010    -1.0710 ns         1 YDJ      -0.554900
     16 C12          8.9350    -0.0020    -1.5910 c3         1 YDJ       0.112700
     17 C13          8.9480    -0.6120    -2.9950 c3         1 YDJ      -0.095400
     18 C14         10.3710    -0.5540    -3.5560 c3         1 YDJ      -0.073400
     19 C15         10.8520     0.8990    -3.5680 c3         1 YDJ       0.152800
     20 N2          10.8210     1.4380    -2.2010 n7         1 YDJ      -0.815200
     21 C16          9.4560     1.4360    -1.6600 c3         1 YDJ       0.145800
     22 N3           6.6360     0.0010     3.1180 ns         1 YDJ      -0.400100
     23 C17          6.2440     0.1480     4.3990 c          1 YDJ       0.578100
     24 O2           5.0600     0.1870     4.6730 o          1 YDJ      -0.506100
     25 N4           7.1650     0.2530     5.3780 nz         1 YDJ      -0.668400
     26 H1          -0.5400    -0.0000    -0.9390 ha         1 YDJ       0.153000
     27 H2           1.9220     0.0000    -0.9380 ha         1 YDJ       0.137000
     28 H6          -1.7780    -0.0010     1.1910 ha         1 YDJ       0.161000
     29 H4           1.9050     0.0000     3.3570 ha         1 YDJ       0.149000
     30 H8           3.9160     0.0010     3.3340 ha         1 YDJ       0.203000
     31 H3           7.6010    -0.1570     2.9060 hn         1 YDJ       0.380500
     32 HA           6.7900    -0.0250    -1.7030 hn         1 YDJ       0.321500
     33 H12          9.5740    -0.5850    -0.9390 h1         1 YDJ       0.095700
     34 H131         8.6230    -1.6440    -2.9420 hc         1 YDJ       0.047700
     35 H132         8.2830    -0.0500    -3.6390 hc         1 YDJ       0.047700
     36 H161         9.4630     1.8640    -0.6650 h1         1 YDJ       0.038200
     37 H162         8.8120     2.0210    -2.3060 h1         1 YDJ       0.038200
     38 H141        10.3770    -0.9440    -4.5670 hc         1 YDJ       0.059700
     39 H142        11.0290    -1.1460    -2.9310 hc         1 YDJ       0.059700
     40 H151        10.1990     1.4880    -4.2010 h1         1 YDJ       0.040700
     41 H152        11.8650     0.9400    -3.9480 h1         1 YDJ       0.040700
     42 HB          11.1780     2.3730    -2.2030 hn         1 YDJ       0.365800
     43 H41N         7.6880    -0.5980     5.4360 hn         1 YDJ       0.481467
     44 H42N         6.7070     0.4230     6.2510 hn         1 YDJ       0.481467
     45 H43          7.7850     1.0120     5.1720 hn         1 YDJ       0.481467
@<TRIPOS>BOND
     1     1     2 ar
     2     1     6 ar
     3     2     3 ar
     4     3     4 ar
     5     3     8 1
     6     4     5 ar
     7     5     6 ar
     8     5     7 1
     9     8     9 2
    10     8    12 1
    11     9    10 1
    12    10    11 2
    13    10    22 1
    14    11    12 1
    15    11    13 1
    16    13    14 2
    17    13    15 1
    18    15    16 1
    19    16    17 1
    20    16    21 1
    21    17    18 1
    22    18    19 1
    23    19    20 1
    24    20    21 1
    25    22    23 1
    26    23    24 2
    27    23    25 1
    28     1    26 1
    29     2    27 1
    30     6    28 1
    31     4    29 1
    32     9    30 1
    33    22    31 1
    34    15    32 1
    35    16    33 1
    36    17    34 1
    37    17    35 1
    38    21    36 1
    39    21    37 1
    40    18    38 1
    41    18    39 1
    42    19    40 1
    43    19    41 1
    44    20    42 1
    45    25    43 1
    46    25    44 1
    47    45    25 1
@<TRIPOS>SUBSTRUCTURE
     1 YDJ         1 TEMP              0 ****  ****    0 ROOT
