@<TRIPOS>MOLECULE
YDK
   45    47     1     0     0
SMALL
bcc


@<TRIPOS>ATOM
      1 S01          0.0000     0.0000     0.0000 ss         1 YDK      -0.095800
      2 C02          1.7060     0.0000     0.0000 cc         1 YDK      -0.081500
      3 C03          2.1840     0.0000     1.2880 cd         1 YDK      -0.156600
      4 C04          1.1820     0.0000     2.2600 cd         1 YDK      -0.132000
      5 C05         -0.0610     0.0000     1.7550 cc         1 YDK       0.126900
      6 N06          2.4960    -0.0010    -1.1370 ns         1 YDK       0.139900
      7 C07          1.9220    -0.0010    -2.3570 c          1 YDK       0.221100
      8 N08          2.6910    -0.0020    -3.4640 nz         1 YDK       0.234600
      9 O09          0.7100    -0.0010    -2.4590 o          1 YDK      -0.534100
     10 C10          3.6160    -0.0000     1.6110 c          1 YDK       0.617700
     11 O11          4.4410    -0.0000     0.7160 o          1 YDK      -0.711100
     12 N12          4.0160    -0.0000     2.8970 ns         1 YDK      -0.131900
     13 C13          5.4440    -0.0000     3.2200 c3         1 YDK       0.003700
     14 C14          5.9700    -1.4370     3.2110 c3         1 YDK       0.132800
     15 N15          7.3980    -1.4400     3.5550 n7         1 YDK      -0.569200
     16 C16          7.6200    -0.9060     4.9050 c3         1 YDK       0.141800
     17 C17          7.1430     0.5480     4.9660 c3         1 YDK      -0.015400
     18 C18          5.6540     0.6060     4.6110 c3         1 YDK      -0.037400
     19 C19         -1.3010     0.0010     2.5590 ca         1 YDK      -0.048000
     20 C20         -2.5460     0.0010     1.9270 ca         1 YDK      -0.078500
     21 C21         -3.7000     0.0020     2.6840 ca         1 YDK      -0.090500
     22 C22         -3.6250     0.0030     4.0650 ca         1 YDK      -0.066000
     23 C23         -2.3930     0.0040     4.6980 ca         1 YDK      -0.090500
     24 C24         -1.2320    -0.0040     3.9530 ca         1 YDK      -0.078500
     25 H06          3.4930     0.0010    -1.0540 hn         1 YDK       0.218500
     26 H04          1.3880     0.0010     3.3240 ha         1 YDK       0.142000
     27 H081         3.2680     0.8160    -3.4690 hn         1 YDK       0.240467
     28 H082         3.2700    -0.8180    -3.4670 hn         1 YDK       0.240467
     29 H12          3.3370     0.0140     3.6320 hn         1 YDK       0.182500
     30 H13          5.9860     0.5860     2.4870 h1         1 YDK       0.071700
     31 H141         5.8370    -1.8620     2.2230 h1         1 YDK       0.012200
     32 H142         5.4240    -2.0250     3.9390 h1         1 YDK       0.012200
     33 H181         5.0870     0.0410     5.3410 hc         1 YDK       0.019200
     34 H182         5.3240     1.6380     4.6080 hc         1 YDK       0.019200
     35 H15          7.7520    -2.3740     3.5030 hn         1 YDK       0.260800
     36 H161         8.6760    -0.9480     5.1390 h1         1 YDK       0.012700
     37 H162         7.0620    -1.4980     5.6210 h1         1 YDK       0.012700
     38 H171         7.2900     0.9340     5.9670 hc         1 YDK       0.027700
     39 H172         7.7060     1.1420     4.2560 hc         1 YDK       0.027700
     40 H20         -2.6060     0.0000     0.8450 ha         1 YDK       0.107500
     41 H24         -0.2690    -0.0040     4.4490 ha         1 YDK       0.107500
     42 H21         -4.6660     0.0020     2.1950 ha         1 YDK       0.114000
     43 H22         -4.5340     0.0070     4.6540 ha         1 YDK       0.113000
     44 H23         -2.3420     0.0030     5.7800 ha         1 YDK       0.114000
     45 H083         2.1070    -0.0030    -4.2760 hn         1 YDK       0.240467
@<TRIPOS>BOND
     1     1     2 1   
     2     1     5 1   
     3     2     3 2   
     4     2     6 1   
     5     3     4 1   
     6     3    10 1   
     7     4     5 2   
     8     4    26 1   
     9     5    19 1   
    10     6     7 1   
    11     6    25 1   
    12     7     8 1   
    13     7     9 2   
    14     8    27 1   
    15     8    28 1   
    16     8    45 1   
    17    10    11 2   
    18    10    12 1   
    19    12    13 1   
    20    12    29 1   
    21    13    14 1   
    22    13    18 1   
    23    13    30 1   
    24    14    15 1   
    25    14    31 1   
    26    14    32 1   
    27    15    16 1   
    28    15    35 1   
    29    16    17 1   
    30    16    36 1   
    31    16    37 1   
    32    17    18 1   
    33    17    38 1   
    34    17    39 1   
    35    18    33 1   
    36    18    34 1   
    37    19    20 ar  
    38    19    24 ar  
    39    20    21 ar  
    40    20    40 1   
    41    21    22 ar  
    42    21    42 1   
    43    22    23 ar  
    44    22    43 1   
    45    23    24 ar  
    46    23    44 1   
    47    24    41 1   
@<TRIPOS>SUBSTRUCTURE
     1 YDK         1 TEMP              0 ****  ****    0 ROOT
