@<TRIPOS>MOLECULE
molecule
   80    82     1     0     0
SMALL
bcc


@<TRIPOS>ATOM
      1 N1           0.0000     0.0000     0.0000 nz         1 YDP      -0.683400
      2 C5           3.4790    -0.1130    -1.2860 ca         1 YDP      -0.105250
      3 C6           2.0880     0.0010    -1.2800 ca         1 YDP      -0.181100
      4 C8           1.3480     0.0000     0.0000 c          1 YDP       0.522700
      5 C20          4.1630    -0.1120    -2.4840 ca         1 YDP      -0.015500
      6 C24          3.6980    -2.2320    -6.5770 c3         1 YDP       0.195500
      7 C27          3.4730     0.0020    -3.6770 ca         1 YDP      -0.224000
      8 C18          2.0940     0.1150    -3.6790 ca         1 YDP      -0.015500
      9 C2           1.3980     0.1150    -2.4880 ca         1 YDP      -0.105250
     10 S9           4.3550     0.0040    -5.2030 sy         1 YDP       1.398700
     11 O40          5.6380     0.5490    -4.9240 o          1 YDP      -0.588300
     12 N32          4.6020    -1.5780    -5.6280 n3         1 YDP      -0.815000
     13 C33          5.7260    -2.3240    -5.0530 c3         1 YDP       0.242500
     14 C34          6.9040    -2.2560    -5.9910 c2         1 YDP      -0.433700
     15 C35          8.0630    -1.8270    -5.5560 c2         1 YDP       0.003600
     16 C11          8.2170    -1.4030    -4.1180 c3         1 YDP      -0.083650
     17 C25          3.8110    -1.5720    -7.9630 c3         1 YDP       0.092300
     18 N22          4.3000    -2.6100    -8.8980 n7         1 YDP      -0.752200
     19 O11          3.4730     0.5460    -6.1760 o          1 YDP      -0.588300
     20 O2           1.9550     0.0000     1.0530 o          1 YDP      -0.459600
     21 N2           4.1440    -2.2660     1.0280 nz         1 YDP      -0.683400
     22 C3           2.3270    -4.4010    -1.4040 ca         1 YDP      -0.105250
     23 O3           2.0980    -3.1280     1.0700 o          1 YDP      -0.459600
     24 C7           4.5570    -3.4870    -1.5180 ca         1 YDP      -0.105250
     25 C4           3.3500    -3.6400    -0.8350 ca         1 YDP      -0.181100
     26 C9           3.1550    -3.0000     0.4830 c          1 YDP       0.522700
     27 C12          0.2100    -2.6510    -7.4370 c3         1 YDP      -0.083650
     28 C13         -0.3810    -1.7030    -5.0780 c3         1 YDP      -0.083650
     29 O12          5.3480    -5.5980    -5.1210 o          1 YDP      -0.588300
     30 C19          2.5160    -4.9960    -2.6340 ca         1 YDP      -0.015500
     31 C21          4.7330    -4.0870    -2.7470 ca         1 YDP      -0.015500
     32 C23          4.1190    -3.7030    -6.7930 c3         1 YDP       0.195500
     33 C26          3.8880    -3.9110    -8.3110 c3         1 YDP       0.092300
     34 C28          3.7150    -4.8400    -3.3040 ca         1 YDP      -0.224000
     35 N36          3.2700    -4.6060    -6.0110 n3         1 YDP      -0.815000
     36 C37          1.8220    -4.6260    -6.2320 c3         1 YDP       0.242500
     37 C38          1.1700    -3.5640    -5.3850 c2         1 YDP      -0.433700
     38 C39          0.3730    -2.6840    -5.9390 c2         1 YDP       0.003600
     39 O41          3.1660    -6.7900    -4.8650 o          1 YDP      -0.588300
     40 HN1         -0.3340     0.8280    -0.4520 hn         1 YDP       0.487800
     41 HN1A        -0.3340    -0.0220     0.9430 hn         1 YDP       0.487800
     42 H5           4.0200    -0.2030    -0.3510 ha         1 YDP       0.137500
     43 H10         10.1090    -1.3960    -5.9560 hc         1 YDP       0.055033
     44 H10A         9.0140    -1.0850    -7.3100 hc         1 YDP       0.055033
     45 H10B         9.4470    -2.7470    -6.8860 hc         1 YDP       0.055033
     46 H20          5.2430    -0.2000    -2.4900 ha         1 YDP       0.192500
     47 H24          2.6750    -2.1840    -6.2230 h1         1 YDP       0.095200
     48 H18          1.5600     0.2040    -4.6180 ha         1 YDP       0.192500
     49 H2           0.3200     0.1320    -2.5940 ha         1 YDP       0.137500
     50 H33          5.9980    -1.8890    -4.0990 h1         1 YDP       0.071700
     51 H33A         5.4370    -3.3580    -4.9100 h1         1 YDP       0.071700
     52 H34          6.7930    -2.5610    -7.0250 ha         1 YDP       0.256500
     53 H11          7.6320    -0.5090    -3.9400 hc         1 YDP       0.055033
     54 H11A         9.2610    -1.1990    -3.9110 hc         1 YDP       0.055033
     55 H11B         7.8700    -2.1970    -3.4680 hc         1 YDP       0.055033
     56 H25          2.8390    -1.2180    -8.2830 h1         1 YDP       0.083700
     57 H25A         4.5160    -0.7510    -7.9240 h1         1 YDP       0.083700
     58 HN22         3.8590    -2.4910    -9.7890 hn         1 YDP       0.370800
     59 HN2          4.8040    -2.8730     1.4720 hn         1 YDP       0.487800
     60 HN2A         4.6040    -1.7400     0.3110 hn         1 YDP       0.487800
     61 H3           1.5710    -4.9060    -0.8140 ha         1 YDP       0.137500
     62 H7           5.3870    -2.9780    -1.0410 ha         1 YDP       0.137500
     63 H12         -0.1940    -3.5960    -7.7770 hc         1 YDP       0.055033
     64 H12A         1.1740    -2.4820    -7.9010 hc         1 YDP       0.055033
     65 H12B        -0.4670    -1.8500    -7.7090 hc         1 YDP       0.055033
     66 H13         -0.0990    -1.8430    -4.0410 hc         1 YDP       0.055033
     67 H13A        -0.1400    -0.6930    -5.3850 hc         1 YDP       0.055033
     68 H13B        -1.4460    -1.8700    -5.1880 hc         1 YDP       0.055033
     69 H19          1.7270    -5.5970    -3.0710 ha         1 YDP       0.192500
     70 H21          5.6590    -4.6360    -2.6300 ha         1 YDP       0.192500
     71 H23          5.1640    -3.8400    -6.5460 h1         1 YDP       0.095200
     72 H26          3.1190    -4.5680    -8.6990 h1         1 YDP       0.083700
     73 H26A         4.8790    -4.3020    -8.1160 h1         1 YDP       0.083700
     74 H37          1.4290    -5.5980    -5.9590 h1         1 YDP       0.071700
     75 H37A         1.6140    -4.4330    -7.2780 h1         1 YDP       0.071700
     76 H38          2.0780    -3.3710    -5.9430 ha         1 YDP       0.256500
     77 S10          3.9480    -5.6030    -4.8750 sy         1 YDP       1.398700
     78 C10          9.2410    -1.7590    -6.4930 c3         1 YDP      -0.083650
     79 H131        -0.3340    -0.8010    -0.4990 hn         1 YDP       0.487800
     80 H231         3.7590    -1.6390     1.7070 hn         1 YDP       0.487800
@<TRIPOS>BOND
     1     1     4 1
     2     2     3 ar
     3     2     5 ar
     4     3     4 1
     5     3     9 ar
     6     4    20 2
     7    78    15 1
     8     5     7 ar
     9     6    12 1
    10     6    17 1
    11     6    32 1
    12     7     8 ar
    13     7    10 1
    14     8     9 ar
    15    10    11 2
    16    10    12 1
    17    10    19 2
    18    12    13 1
    19    13    14 1
    20    14    15 2
    21    15    16 1
    22    17    18 1
    23    18    33 1
    24    21    26 1
    25    22    25 ar
    26    22    30 ar
    27    23    26 2
    28    24    25 ar
    29    24    31 ar
    30    25    26 1
    31    77    29 2
    32    77    34 1
    33    77    35 1
    34    77    39 2
    35    27    38 1
    36    28    38 1
    37    30    34 ar
    38    31    34 ar
    39    32    33 1
    40    32    35 1
    41    35    36 1
    42    36    37 1
    43    37    38 2
    44     1    40 1
    45     1    41 1
    46     2    42 1
    47    78    43 1
    48    78    44 1
    49    78    45 1
    50     5    46 1
    51     6    47 1
    52     8    48 1
    53     9    49 1
    54    13    50 1
    55    13    51 1
    56    14    52 1
    57    16    53 1
    58    16    54 1
    59    16    55 1
    60    17    56 1
    61    17    57 1
    62    18    58 1
    63    21    59 1
    64    21    60 1
    65    22    61 1
    66    24    62 1
    67    27    63 1
    68    27    64 1
    69    27    65 1
    70    28    66 1
    71    28    67 1
    72    28    68 1
    73    30    69 1
    74    31    70 1
    75    32    71 1
    76    33    72 1
    77    33    73 1
    78    36    74 1
    79    36    75 1
    80    37    76 1
    81    79     1 1
    82    80    21 1
@<TRIPOS>SUBSTRUCTURE
     1 YDP         1 TEMP              0 ****  ****    0 ROOT
