@<TRIPOS>MOLECULE
YDP
   80    83     1     0     0
SMALL
bcc


@<TRIPOS>ATOM
      1 N1           0.0000     0.0000     0.0000 nz         1 YDP       0.818000
      2 C5           3.4790    -0.1130    -1.2860 ca         1 YDP      -0.090500
      3 C6           2.0880     0.0010    -1.2800 ca         1 YDP      -0.188000
      4 C8           1.3480     0.0000     0.0000 c2         1 YDP       0.130000
      5 C20          4.1630    -0.1120    -2.4840 ca         1 YDP       0.021500
      6 C24          3.6980    -2.2320    -6.5770 c3         1 YDP      -0.047000
      7 C27          3.4730     0.0020    -3.6770 ca         1 YDP      -0.516000
      8 C18          2.0940     0.1150    -3.6790 ca         1 YDP       0.021500
      9 C2           1.3980     0.1150    -2.4880 ca         1 YDP      -0.090500
     10 S9           4.3550     0.0040    -5.2030 s6         1 YDP       2.373000
     11 O40          5.6380     0.5490    -4.9240 o          1 YDP      -0.828500
     12 N32          4.6020    -1.5780    -5.6280 n3         1 YDP      -0.491000
     13 C33          5.7260    -2.3240    -5.0530 DU         1 YDP      -0.060000
     14 C34          6.9040    -2.2560    -5.9910 c2         1 YDP      -0.485000
     15 C35          8.0630    -1.8270    -5.5560 c2         1 YDP       0.142000
     16 C11          8.2170    -1.4030    -4.1180 c3         1 YDP      -0.129500
     17 C25          3.8110    -1.5720    -7.9630 c3         1 YDP      -0.103000
     18 N22          4.3000    -2.6100    -8.8980 n7         1 YDP      -0.009000
     19 O11          3.4730     0.5460    -6.1760 o          1 YDP      -0.828500
     20 O2           1.9550     0.0000     1.0530 o          1 YDP      -0.251000
     21 N2           4.1440    -2.2660     1.0280 nz         1 YDP       0.777000
     22 C3           2.3270    -4.4010    -1.4040 ca         1 YDP      -0.067500
     23 O3           2.0960    -3.1240     1.0670 o          1 YDP      -0.223000
     24 C7           4.5570    -3.4870    -1.5180 ca         1 YDP      -0.067500
     25 C4           3.3500    -3.6400    -0.8350 ca         1 YDP      -0.192000
     26 C9           3.1550    -3.0000     0.4830 c2         1 YDP       0.112000
     27 C12          0.2100    -2.6510    -7.4370 c3         1 YDP      -0.075000
     28 C13         -0.3810    -1.7030    -5.0780 c3         1 YDP      -0.075000
     29 O12          5.3480    -5.5980    -5.1210 o          1 YDP      -0.830000
     30 C19          2.5160    -4.9960    -2.6340 ca         1 YDP      -0.018500
     31 C21          4.7330    -4.0870    -2.7470 ca         1 YDP      -0.018500
     32 C23          4.1190    -3.7030    -6.7930 c3         1 YDP      -0.028000
     33 C26          3.8880    -3.9110    -8.3110 c3         1 YDP      -0.200000
     34 C28          3.7150    -4.8400    -3.3040 ca         1 YDP      -0.509000
     35 N36          3.2700    -4.6060    -6.0110 n3         1 YDP      -0.524000
     36 C37          1.8220    -4.6260    -6.2320 c3         1 YDP       0.012000
     37 C38          1.1700    -3.5640    -5.3850 c2         1 YDP      -0.245000
     38 C39          0.3730    -2.6840    -5.9390 c2         1 YDP      -0.084000
     39 O41          3.1660    -6.7900    -4.8650 o          1 YDP      -0.830000
     40 HN1         -0.3340    -0.8100    -0.4840 hn         1 YDP       0.053667
     41 HN1A        -0.3340    -0.0150     0.9430 hn         1 YDP       0.053667
     42 H5           4.0200    -0.2030    -0.3510 ha         1 YDP       0.099000
     43 H10         10.0810    -2.2870    -6.0560 hc         1 YDP       0.069500
     44 H10A         9.5120    -0.7230    -6.6570 hc         1 YDP       0.069500
     45 H10B         8.9780    -2.2180    -7.4380 hc         1 YDP       0.069500
     46 H20          5.2430    -0.2000    -2.4900 ha         1 YDP       0.156500
     47 H24          2.6750    -2.1840    -6.2230 h1         1 YDP       0.082000
     48 H18          1.5600     0.2040    -4.6180 ha         1 YDP       0.156500
     49 H2           0.3200     0.1320    -2.5940 ha         1 YDP       0.099000
     50 H33          5.9980    -1.8890    -4.0990 ha         1 YDP       0.043500
     51 H33A         5.4370    -3.3580    -4.9100 ha         1 YDP       0.043500
     52 H34          6.7510    -3.0370    -5.2560 DU         1 YDP       0.272000
     53 H11          9.2500    -1.1360    -3.9290 hc         1 YDP       0.069500
     54 H11A         7.5820    -0.5480    -3.9230 hc         1 YDP       0.069500
     55 H11B         7.9310    -2.2210    -3.4670 hc         1 YDP       0.069500
     56 H25          4.5160    -0.7510    -7.9240 h1         1 YDP       0.073500
     57 H25A         2.8390    -1.2180    -8.2830 h1         1 YDP       0.073500
     58 HN22         3.8590    -2.4910    -9.7890 hn         1 YDP       0.057000
     59 HN2          3.7590    -1.6350     1.7030 hn         1 YDP       0.057333
     60 HN2A         4.6070    -1.7440     0.3100 hn         1 YDP       0.057333
     61 H3           1.4580    -4.8350    -0.9240 ha         1 YDP       0.120000
     62 H7           5.3840    -2.9700    -1.0450 ha         1 YDP       0.120000
     63 H12         -0.3110    -3.5420    -7.7630 hc         1 YDP       0.054500
     64 H12A         1.1860    -2.6110    -7.9050 hc         1 YDP       0.054500
     65 H12B        -0.3620    -1.7750    -7.7180 hc         1 YDP       0.054500
     66 H13         -1.4460    -1.8730    -5.1840 hc         1 YDP       0.054500
     67 H13A        -0.0960    -1.8400    -4.0420 hc         1 YDP       0.054500
     68 H13B        -0.1430    -0.6930    -5.3870 hc         1 YDP       0.054500
     69 H19          1.7360    -5.6160    -3.0600 ha         1 YDP       0.163000
     70 H21          5.6140    -4.6910    -2.5690 ha         1 YDP       0.163000
     71 H23          5.1640    -3.8400    -6.5460 h1         1 YDP       0.160000
     72 H26          3.1190    -4.5680    -8.6990 h1         1 YDP       0.109000
     73 H26A         4.8790    -4.3020    -8.1160 h1         1 YDP       0.109000
     74 H37          1.6140    -4.4330    -7.2780 h1         1 YDP       0.097500
     75 H37A         1.4290    -5.5980    -5.9590 h1         1 YDP       0.097500
     76 H38          1.2850    -3.5860    -4.3080 ha         1 YDP       0.080000
     77 S10          3.9480    -5.6030    -4.8750 s6         1 YDP       2.378000
     78 C10          9.2410    -1.7590    -6.4930 c3         1 YDP      -0.129500
     79 H131        -0.3340     0.8160    -0.4730 hn         1 YDP       0.053667
     80 H231         4.8020    -2.8730     1.4760 hn         1 YDP       0.057333
@<TRIPOS>BOND
     1     1     4 1   
     2     1    40 1   
     3     1    41 1   
     4     1    79 1   
     5     2     3 1   
     6     2     5 1   
     7     2    42 1   
     8     3     4 1   
     9     3     9 1   
    10     4    20 1   
    11     5     7 1   
    12     5    46 1   
    13     6    12 1   
    14     6    17 1   
    15     6    32 1   
    16     6    47 1   
    17     7     8 1   
    18     7    10 1   
    19     8     9 1   
    20     8    48 1   
    21     9    49 1   
    22    10    11 1   
    23    10    12 1   
    24    10    19 1   
    25    12    13 1   
    26    13    14 1   
    27    13    50 1   
    28    13    51 1   
    29    13    52 1   
    30    14    15 1   
    31    14    52 1   
    32    15    16 1   
    33    15    78 1   
    34    16    53 1   
    35    16    54 1   
    36    16    55 1   
    37    17    18 1   
    38    17    56 1   
    39    17    57 1   
    40    18    33 1   
    41    18    58 1   
    42    21    26 1   
    43    21    59 1   
    44    21    60 1   
    45    21    80 1   
    46    22    25 1   
    47    22    30 1   
    48    22    61 1   
    49    23    26 1   
    50    24    25 1   
    51    24    31 1   
    52    24    62 1   
    53    25    26 1   
    54    27    38 1   
    55    27    63 1   
    56    27    64 1   
    57    27    65 1   
    58    28    38 1   
    59    28    66 1   
    60    28    67 1   
    61    28    68 1   
    62    29    77 1   
    63    30    34 1   
    64    30    69 1   
    65    31    34 1   
    66    31    70 1   
    67    32    33 1   
    68    32    35 1   
    69    32    71 1   
    70    33    72 1   
    71    33    73 1   
    72    34    77 1   
    73    35    36 1   
    74    35    77 1   
    75    36    37 1   
    76    36    74 1   
    77    36    75 1   
    78    37    38 1   
    79    37    76 1   
    80    39    77 1   
    81    43    78 1   
    82    44    78 1   
    83    45    78 1   
@<TRIPOS>SUBSTRUCTURE
     1 YDP         1 TEMP              0 ****  ****    0 ROOT
