@<TRIPOS>MOLECULE
molecule
   45    46     1     0     0
SMALL
bcc


@<TRIPOS>ATOM
      1 C1           0.0000     0.0000     0.0000 c3         1 YDR       0.223200
      2 C2           1.5310     0.0000     0.0000 c3         1 YDR       0.127100
      3 O2           2.0080     1.1670    -0.6710 oh         1 YDR      -0.591800
      4 C3           2.0340     0.0000     1.4470 c3         1 YDR       0.124100
      5 O3           1.6090     1.1990     2.1000 oh         1 YDR      -0.598800
      6 C4           1.4520    -1.2150     2.1770 c3         1 YDR       0.106100
      7 O4           1.9270    -2.4140     1.5640 oh         1 YDR      -0.584800
      8 C5          -0.0750    -1.1680     2.0930 c3         1 YDR       0.136100
      9 O5          -0.4750    -1.1380     0.7210 os         1 YDR      -0.379600
     10 C6          -0.5880     0.0880     2.8010 c3         1 YDR       0.100400
     11 O6          -2.0150     0.0560     2.8570 oh         1 YDR      -0.604800
     12 CAA         -3.5250    -1.2330    -4.7550 c3         1 YDR       0.322900
     13 OAB         -2.8770    -0.3310    -5.6540 oh         1 YDR      -0.626800
     14 CAC         -5.0190    -0.9050    -4.6910 c3         1 YDR       0.100100
     15 OAD         -5.6770    -1.8400    -3.8340 oh         1 YDR      -0.575800
     16 CAE         -5.1990     0.5110    -4.1370 c3         1 YDR       0.132100
     17 OAF         -6.5920     0.7990    -4.0030 oh         1 YDR      -0.596800
     18 CAG         -4.5230     0.6000    -2.7640 c3         1 YDR       0.120100
     19 OAH         -4.6230     1.9360    -2.2690 oh         1 YDR      -0.604800
     20 CAI         -3.0490     0.2130    -2.9030 c3         1 YDR       0.158100
     21 CAJ         -2.3820     0.2410    -1.5270 c3         1 YDR       0.023700
     22 SAK         -0.6050    -0.0720    -1.7090 ss         1 YDR      -0.288200
     23 OAL         -2.9530    -1.1030    -3.4530 os         1 YDR      -0.394600
     24 H1          -0.3590     0.9040     0.4770 h2         1 YDR       0.078700
     25 H2           1.8920    -0.8870    -0.5060 h1         1 YDR       0.074700
     26 HO2          2.5730     0.9130    -1.3820 ho         1 YDR       0.407000
     27 H3           3.1150    -0.0590     1.4540 h1         1 YDR       0.046700
     28 HO3          2.3650     1.7030     2.3530 ho         1 YDR       0.408000
     29 H4           1.7560    -1.1900     3.2170 h1         1 YDR       0.041700
     30 HO4          2.3700    -2.9420     2.2070 ho         1 YDR       0.404000
     31 H5          -0.4880    -2.0490     2.5680 h1         1 YDR       0.092700
     32 H6          -0.1880     0.1240     3.8070 h1         1 YDR       0.047700
     33 H6A         -0.2680     0.9670     2.2540 h1         1 YDR       0.047700
     34 HO6         -2.3140     0.5830     3.5790 ho         1 YDR       0.400000
     35 HOAB        -2.3900    -0.8210    -6.2960 ho         1 YDR       0.415000
     36 HAC         -5.4430    -0.9580    -5.6860 h1         1 YDR       0.042700
     37 HOAD        -6.1700    -2.4510    -4.3560 ho         1 YDR       0.402000
     38 HAE         -4.7400     1.2230    -4.8120 h1         1 YDR       0.065700
     39 HOAF        -6.8490     1.4220    -4.6630 ho         1 YDR       0.402000
     40 HAG         -5.0110    -0.0820    -2.0780 h1         1 YDR       0.073700
     41 HOAH        -5.2660     1.9690    -1.5800 ho         1 YDR       0.412000
     42 HAI         -2.5540     0.9150    -3.5630 h1         1 YDR       0.073700
     43 HAJ         -2.5330     1.2130    -1.0730 h1         1 YDR       0.082200
     44 HAJA        -2.8210    -0.5230    -0.8970 h1         1 YDR       0.082200
     45 HAA         -3.3960    -2.2510    -5.1030 h2         1 YDR       0.070700
@<TRIPOS>BOND
     1    22     1 1
     2     2     1 1
     3     1     9 1
     4     1    24 1
     5     4     2 1
     6     2     3 1
     7     2    25 1
     8     3    26 1
     9     5     4 1
    10     4     6 1
    11     4    27 1
    12     5    28 1
    13     7     6 1
    14     6     8 1
    15     6    29 1
    16     7    30 1
    17     8     9 1
    18     8    10 1
    19     8    31 1
    20    10    11 1
    21    10    32 1
    22    10    33 1
    23    11    34 1
    24    14    12 1
    25    12    23 1
    26    12    13 1
    27    12    45 1
    28    13    35 1
    29    15    14 1
    30    14    16 1
    31    14    36 1
    32    15    37 1
    33    17    16 1
    34    16    18 1
    35    16    38 1
    36    17    39 1
    37    18    19 1
    38    18    20 1
    39    18    40 1
    40    19    41 1
    41    23    20 1
    42    20    21 1
    43    20    42 1
    44    22    21 1
    45    21    43 1
    46    21    44 1
@<TRIPOS>SUBSTRUCTURE
     1 YDR         1 TEMP              0 ****  ****    0 ROOT
