@<TRIPOS>MOLECULE
YDR
   45    46     1     0     0
SMALL
bcc


@<TRIPOS>ATOM
      1 C1         -0.0960   -0.7560   -0.3650 c3        1 YDR      0.169200
      2 C2          1.3500   -0.2590   -0.3090 c3        1 YDR      0.090100
      3 O2          1.6510    0.6060   -1.3930 oh        1 YDR     -0.605800
      4 C3          1.5960    0.5720    0.9660 c3        1 YDR      0.120100
      5 O3          0.9770    1.8430    0.8870 oh        1 YDR     -0.601800
      6 C4          1.0400   -0.1300    2.2190 c3        1 YDR      0.120100
      7 O4          1.9480   -1.1350    2.6310 oh        1 YDR     -0.586800
      8 C5         -0.3610   -0.7200    2.0110 c3        1 YDR      0.099100
      9 O5         -0.4220   -1.4860    0.8090 os        1 YDR     -0.398600
     10 C6         -1.4520    0.3520    2.0440 c3        1 YDR      0.094400
     11 O6         -1.9350    0.3940    3.3780 oh        1 YDR     -0.601800
     12 CAA        -3.8090   -0.7220   -4.8400 c3        1 YDR      0.307900
     13 OAB        -2.7860    0.0130   -5.4700 oh        1 YDR     -0.625800
     14 CAC        -4.8110    0.2870   -4.2480 c3        1 YDR      0.095100
     15 OAD        -6.0150   -0.3700   -3.8870 oh        1 YDR     -0.599800
     16 CAE        -4.2640    0.9340   -2.9700 c3        1 YDR      0.116100
     17 OAF        -5.2480    1.6900   -2.2960 oh        1 YDR     -0.595800
     18 CAG        -3.6930   -0.1420   -2.0320 c3        1 YDR      0.084100
     19 OAH        -3.1020    0.4510   -0.8870 oh        1 YDR     -0.607800
     20 CAI        -2.5970   -0.9270   -2.7710 c3        1 YDR      0.149100
     21 CAJ        -2.0040   -2.0370   -1.9180 c3        1 YDR     -0.009300
     22 SAK        -0.2550   -1.9070   -1.7220 ss        1 YDR     -0.281200
     23 OAL        -3.1730   -1.5750   -3.9130 os        1 YDR     -0.441600
     24 H1         -0.8070    0.1050   -0.4940 h2        1 YDR      0.100700
     25 H2          2.0530   -1.1400   -0.3180 h1        1 YDR      0.062700
     26 HO2         1.3750    0.1520   -2.2010 ho        1 YDR      0.424000
     27 H3          2.7090    0.7060    1.0870 h1        1 YDR      0.064700
     28 HO3         1.2760    2.2490    0.0610 ho        1 YDR      0.427000
     29 H4          1.0130    0.6050    3.0730 h1        1 YDR      0.108700
     30 HO4         1.8720   -1.8640    2.0010 ho        1 YDR      0.407000
     31 H5         -0.5620   -1.4900    2.8150 h1        1 YDR      0.111700
     32 H6         -1.0420    1.3520    1.7400 h1        1 YDR      0.053200
     33 H6A        -2.2870    0.0640    1.3460 h1        1 YDR      0.053200
     34 HO6        -2.4960    1.1750    3.4410 ho        1 YDR      0.403000
     35 HOAB       -2.1060   -0.6150   -5.7450 ho        1 YDR      0.428000
     36 HAC        -5.0180    1.0850   -5.0150 h1        1 YDR      0.075700
     37 HOAD       -6.4310   -0.6730   -4.7030 ho        1 YDR      0.416000
     38 HAE        -3.4620    1.6770   -3.2440 h1        1 YDR      0.103700
     39 HOAF       -6.0310    1.1310   -2.1950 ho        1 YDR      0.423000
     40 HAG        -4.5180   -0.8370   -1.7080 h1        1 YDR      0.067700
     41 HOAH       -3.6930    1.1670   -0.6100 ho        1 YDR      0.425000
     42 HAI        -1.7980   -0.2150   -3.1220 h1        1 YDR      0.071700
     43 HAJ        -2.1760   -3.0290   -2.4110 h1        1 YDR      0.104700
     44 HAJA       -2.4950   -2.0500   -0.9130 h1        1 YDR      0.104700
     45 HAA        -4.3220   -1.4290   -5.5560 h2        1 YDR      0.072700
@<TRIPOS>BOND
     1    1    2 1   
     2    1    9 1   
     3    1   22 1   
     4    1   24 1   
     5    2    3 1   
     6    2    4 1   
     7    2   25 1   
     8    3   26 1   
     9    4    5 1   
    10    4    6 1   
    11    4   27 1   
    12    5   28 1   
    13    6    7 1   
    14    6    8 1   
    15    6   29 1   
    16    7   30 1   
    17    8    9 1   
    18    8   10 1   
    19    8   31 1   
    20   10   11 1   
    21   10   32 1   
    22   10   33 1   
    23   11   34 1   
    24   12   13 1   
    25   12   14 1   
    26   12   23 1   
    27   12   45 1   
    28   13   35 1   
    29   14   15 1   
    30   14   16 1   
    31   14   36 1   
    32   15   37 1   
    33   16   17 1   
    34   16   18 1   
    35   16   38 1   
    36   17   39 1   
    37   18   19 1   
    38   18   20 1   
    39   18   40 1   
    40   19   41 1   
    41   20   21 1   
    42   20   23 1   
    43   20   42 1   
    44   21   22 1   
    45   21   43 1   
    46   21   44 1   
@<TRIPOS>SUBSTRUCTURE
     1 YDR         1 TEMP              0 ****  ****    0 ROOT
