@<TRIPOS>MOLECULE
molecule
   39    41     1     0     0
SMALL
bcc


@<TRIPOS>ATOM
      1 CAA          0.0000     0.0000     0.0000 c3         1 YE5      -0.095100
      2 CAB          7.7950    -0.1970     4.0710 c3         1 YE5      -0.192100
      3 CAD          1.1020     0.8190     5.1910 ca         1 YE5      -0.136000
      4 CAE          1.9460     0.8200     4.0990 ca         1 YE5      -0.106000
      5 CAF          1.2430    -0.1360     6.1790 ca         1 YE5      -0.098000
      6 CAG          5.5080     0.0010     0.9710 ca         1 YE5      -0.002000
      7 CAH          4.1670    -0.0010     0.6610 ca         1 YE5      -0.294000
      8 CAI          3.0930    -1.1080     4.9800 ca         1 YE5      -0.090000
      9 CAJ          4.9660    -0.0570     3.3320 ca         1 YE5      -0.036000
     10 CAK          1.5290     0.0000     0.0000 c3         1 YE5       0.155400
     11 CAR          5.9210    -0.0320     2.3100 ca         1 YE5      -0.245600
     12 CAS          2.9470    -0.1440     3.9880 cp         1 YE5      -0.021000
     13 CAT          2.2360    -1.1080     6.0760 ca         1 YE5      -0.115500
     14 CAU          3.2150    -0.0320     1.6720 ca         1 YE5       0.244100
     15 CAV          3.6150    -0.0630     3.0140 cp         1 YE5      -0.116000
     16 CAW          2.3870    -2.1330     7.1390 cc         1 YE5       0.578500
     17 NAL          2.1000    -3.2600     8.8950 na         1 YE5       0.195900
     18 NAM          1.6570    -2.2500     8.2290 nd         1 YE5      -0.571800
     19 NAN          3.2910    -3.1220     7.1740 nc         1 YE5      -0.385000
     20 NAO          3.0870    -3.7880     8.2600 nd         1 YE5      -0.200800
     21 OAC          8.1760     0.1140     1.7620 o          1 YE5      -0.541100
     22 OAP          2.0070     0.0000     1.3470 os         1 YE5      -0.316900
     23 H1          -0.3610    -0.2830    -0.9810 hc         1 YE5       0.053367
     24 H2          -0.3610    -0.7080     0.7360 hc         1 YE5       0.053367
     25 H3          -0.3610     0.9910     0.2450 hc         1 YE5       0.053367
     26 H4           7.4970     0.6760     4.6390 hc         1 YE5       0.061033
     27 H5           7.3420    -1.0810     4.5030 hc         1 YE5       0.061033
     28 H6           8.8730    -0.2940     4.0960 hc         1 YE5       0.061033
     29 H7           0.3270     1.5710     5.2750 ha         1 YE5       0.132000
     30 H8           1.8310     1.5720     3.3280 ha         1 YE5       0.140000
     31 H9           0.5750    -0.1330     7.0330 ha         1 YE5       0.144000
     32 H10          6.2470     0.0230     0.1790 ha         1 YE5       0.151000
     33 H11          3.8540     0.0240    -0.3750 ha         1 YE5       0.139000
     34 H12          3.8680    -1.8600     4.8960 ha         1 YE5       0.154000
     35 H13          5.2800    -0.0820     4.3690 ha         1 YE5       0.148000
     36 H14          1.8900     0.8850    -0.5110 h1         1 YE5       0.043700
     37 H15          1.8900    -0.8840    -0.5110 h1         1 YE5       0.043700
     38 H16          1.7340    -3.5840     9.7680 hn         1 YE5       0.369700
     39 CAQ          7.3520    -0.0380     2.6390 c          1 YE5       0.582700
@<TRIPOS>BOND
     1     1    10 1
     2    10    22 1
     3    22    14 1
     4     7    14 ar
     5     7     6 ar
     6    14    15 ar
     7     6    11 ar
     8    15    12 1
     9    15     9 ar
    10     4    12 ar
    11     4     3 ar
    12    12     8 ar
    13    11     9 ar
    14    11    39 1
    15     3     5 ar
    16    21    39 2
    17     8    13 ar
    18    39     2 1
    19     5    13 ar
    20    13    16 1
    21    16    19 1
    22    16    18 2
    23    19    20 2
    24    18    17 1
    25    20    17 1
    26     1    23 1
    27     1    24 1
    28     1    25 1
    29     2    26 1
    30     2    27 1
    31     2    28 1
    32     3    29 1
    33     4    30 1
    34     5    31 1
    35     6    32 1
    36     7    33 1
    37     8    34 1
    38     9    35 1
    39    10    36 1
    40    10    37 1
    41    17    38 1
@<TRIPOS>SUBSTRUCTURE
     1 YE5         1 TEMP              0 ****  ****    0 ROOT
