@<TRIPOS>MOLECULE
YE6
   27    27     1     0     0
SMALL
bcc


@<TRIPOS>ATOM
      1 CLAP      159.2620  186.5710  -15.6580 cl        1 YE6      0.048000
      2 CAG       159.7850  186.5350  -14.0510 ca        1 YE6      0.015000
      3 CAH       159.4700  185.3950  -13.3000 ca        1 YE6     -0.138000
      4 CAI       159.8930  185.2770  -11.9790 ca        1 YE6     -0.031000
      5 CAJ       160.6480  186.2980  -11.3920 ca        1 YE6     -0.135000
      6 CAK       160.9710  187.4290  -12.1240 ca        1 YE6     -0.052000
      7 CAF       160.5400  187.5790  -13.4660 ca        1 YE6     -0.133000
      8 CAD       160.9190  188.7930  -14.1230 c2        1 YE6      0.251000
      9 OAN       160.2140  189.2430  -15.2170 os        1 YE6     -0.037000
     10 CAC       161.9690  189.7130  -13.8070 c2        1 YE6     -0.234000
     11 CAB       161.9130  190.7560  -14.7350 c2        1 YE6      0.064000
     12 CAA       160.8250  190.4690  -15.6150 c2        1 YE6     -0.224000
     13 CAE       160.3120  191.1050  -16.6890 c1        1 YE6      0.452000
     14 OAO       159.8870  191.6780  -17.6100 o         1 YE6      0.060000
     15 NAL      -454.2430 -539.9200   29.5560 n3        1 YE6     -0.264000
     16 NAM      -455.5820 -539.9810   29.9240 n4        1 YE6      0.005000
     17 HAH       158.8820  184.5830  -13.7630 ha        1 YE6      0.180000
     18 HAI       159.6340  184.3750  -11.3970 ha        1 YE6      0.172000
     19 HAJ       160.9860  186.2020  -10.3460 ha        1 YE6      0.171000
     20 HAK       161.5600  188.2330  -11.6510 ha        1 YE6      0.152000
     21 HAC       162.6890  189.6000  -12.9940 ha        1 YE6      0.211000
     22 HAB       162.5690  191.6290  -14.7970 ha        1 YE6      0.208000
     23 HNAM     -455.6460 -539.7310   30.9290 hn        1 YE6      0.270000
     24 H8       -454.1290 -540.1060   28.5650 hn        1 YE6      0.225000
     25 H9       -456.0910 -539.2550   29.3850 hn        1 YE6      0.270000
     26 HAL2     -453.6880 -540.5780   30.0950 hn        1 YE6      0.225000
     27 HAM3     -456.0460 -540.8930   29.7760 hn        1 YE6      0.270000
@<TRIPOS>BOND
     1    1    2 1
     2    2    3 1
     3    2    7 1
     4    3    4 1
     5    3   17 1
     6    4    5 1
     7    4   18 1
     8    5    6 1
     9    5   19 1
    10    6    7 1
    11    6   20 1
    12    7    8 1
    13    8    9 1
    14    8   10 1
    15    9   12 1
    16   10   11 1
    17   10   21 1
    18   11   12 1
    19   11   22 1
    20   12   13 1
    21   13   14 1
    22   15   16 1
    23   15   24 1
    24   15   26 1
    25   16   23 1
    26   16   25 1
    27   16   27 1
@<TRIPOS>SUBSTRUCTURE
     1 YE6         1 TEMP              0 ****  ****    0 ROOT
