@<TRIPOS>MOLECULE
molecule
   28    30     1     0     0
SMALL
bcc


@<TRIPOS>ATOM
      1 CAK          0.0000     0.0000     0.0000 cc         1 YE7      -0.064100
      2 NAM          1.3710     0.0000     0.0000 na         1 YE7       0.017700
      3 CAH          2.2660     0.0000     1.0640 cc         1 YE7      -0.094300
      4 CAI          3.5930     0.0010     0.8480 cd         1 YE7      -0.099000
      5 CAE          4.1120     0.0020    -0.5380 ca         1 YE7      -0.040000
      6 CAF          5.4870     0.0030    -0.7860 ca         1 YE7      -0.102000
      7 CAA          5.9590     0.0050    -2.1000 ca         1 YE7      -0.097000
      8 CAB          5.0640     0.0050    -3.1710 ca         1 YE7      -0.113000
      9 CAC          3.6870     0.0050    -2.9400 ca         1 YE7      -0.086000
     10 CAD          3.2060     0.0030    -1.6290 ca         1 YE7      -0.030000
     11 CAG          1.7740     0.0020    -1.3270 cc         1 YE7       0.030700
     12 NAN          0.7410     0.0020    -2.1440 nd         1 YE7      -0.305600
     13 CAJ         -0.3610     0.0010    -1.3270 cd         1 YE7      -0.079600
     14 CAL         -1.6970     0.0020    -1.8390 c          1 YE7       0.738300
     15 OAQ         -2.7200     0.0240    -1.1130 o          1 YE7      -0.568100
     16 NAO         -1.8430     0.0030    -3.2400 ns         1 YE7      -0.538300
     17 NAP         -3.1020     0.0290    -3.8120 nz         1 YE7      -0.535600
     18 HAK         -0.5420    -0.6150     0.7080 h4         1 YE7       0.211000
     19 HAH          1.8890    -0.0010     2.0800 h4         1 YE7       0.181000
     20 HAI          4.2780     0.0890     1.6830 ha         1 YE7       0.173000
     21 HAF          6.1870     0.0020     0.0410 ha         1 YE7       0.150000
     22 HAA          7.0250     0.0040    -2.2890 ha         1 YE7       0.152000
     23 HAB          5.4400     0.0070    -4.1870 ha         1 YE7       0.149000
     24 HAC          2.9950     0.0060    -3.7730 ha         1 YE7       0.148000
     25 HNAO        -1.0310    -0.0160    -3.8250 hn         1 YE7       0.407500
     26 HAP1        -3.6180    -0.7770    -3.5190 hn         1 YE7       0.465133
     27 HAP2        -3.5830     0.8570    -3.5220 hn         1 YE7       0.465133
     28 HAP3        -3.0150     0.0260    -4.8090 hn         1 YE7       0.465133
@<TRIPOS>BOND
     1     1    13 2
     2     1     2 1
     3     1    18 1
     4     2    11 1
     5     2     3 1
     6     3     4 2
     7     3    19 1
     8     4     5 1
     9     4    20 1
    10     5    10 ar
    11     5     6 ar
    12     6     7 ar
    13     6    21 1
    14     7     8 ar
    15     7    22 1
    16     8     9 ar
    17     8    23 1
    18     9    10 ar
    19     9    24 1
    20    10    11 1
    21    11    12 2
    22    12    13 1
    23    13    14 1
    24    14    15 2
    25    14    16 1
    26    16    17 1
    27    16    25 1
    28    17    26 1
    29    17    27 1
    30    28    17 1
@<TRIPOS>SUBSTRUCTURE
     1 YE7         1 TEMP              0 ****  ****    0 ROOT
