@<TRIPOS>MOLECULE
YEG
   16    16     1     0     0
SMALL
bcc


@<TRIPOS>ATOM
      1 C01         0.0210   -0.1190    0.0310 c3        1 YEG     -0.076900
      2 C02         1.5410   -0.0290    0.0100 c3        1 YEG     -0.076900
      3 C03         2.0150    0.1540    1.4440 c3        1 YEG     -0.097400
      4 C04         0.7860    0.0350    2.3540 c3        1 YEG      0.140100
      5 C05        -0.3970   -0.3750    1.4700 c3        1 YEG     -0.097400
      6 O06         1.0810   -0.9430    3.3410 oh        1 YEG     -0.598800
      7 H01        -0.4280    0.8380   -0.3370 hc        1 YEG      0.042450
      8 H01A       -0.3410   -0.9370   -0.6410 hc        1 YEG      0.042450
      9 H02         1.9770   -0.9650   -0.4230 hc        1 YEG      0.042450
     10 H02A        1.8770    0.8220   -0.6310 hc        1 YEG      0.042450
     11 H03         2.7690   -0.6260    1.7220 hc        1 YEG      0.052200
     12 H03A        2.4930    1.1550    1.5840 hc        1 YEG      0.052200
     13 H04         0.5730    1.0140    2.8650 h1        1 YEG      0.032700
     14 H05        -0.6250   -1.4610    1.6250 hc        1 YEG      0.052200
     15 H05A       -1.3130    0.2070    1.7340 hc        1 YEG      0.052200
     16 HO06        0.2780   -1.0610    3.8630 ho        1 YEG      0.398000
@<TRIPOS>BOND
     1    1    2 1   
     2    1    5 1   
     3    1    7 1   
     4    1    8 1   
     5    2    3 1   
     6    2    9 1   
     7    2   10 1   
     8    3    4 1   
     9    3   11 1   
    10    3   12 1   
    11    4    5 1   
    12    4    6 1   
    13    4   13 1   
    14    5   14 1   
    15    5   15 1   
    16    6   16 1   
@<TRIPOS>SUBSTRUCTURE
     1 YEG         1 TEMP              0 ****  ****    0 ROOT
