@<TRIPOS>MOLECULE
molecule
   16    16     1     0     0
SMALL
bcc


@<TRIPOS>ATOM
      1 C01          0.0000     0.0000     0.0000 c3         1 YEG      -0.083900
      2 C02          1.5430     0.0000     0.0000 c3         1 YEG      -0.083900
      3 C03          1.9820     0.0000     1.4740 c3         1 YEG      -0.094400
      4 C04          0.6910     0.0000     2.3190 c3         1 YEG       0.140100
      5 C05         -0.3830    -0.6020     1.3740 c3         1 YEG      -0.094400
      6 O06          0.8530    -0.8180     3.4800 oh         1 YEG      -0.602800
      7 H01         -0.3770    -0.6220    -0.8030 hc         1 YEG       0.043700
      8 H01A        -0.3770     1.0120    -0.0870 hc         1 YEG       0.043700
      9 H02          1.9130    -0.8890    -0.4960 hc         1 YEG       0.043700
     10 H02A         1.9130     0.8890    -0.4960 hc         1 YEG       0.043700
     11 H03          2.5630    -0.8890     1.6870 hc         1 YEG       0.052950
     12 H03A         2.5630     0.8890     1.6870 hc         1 YEG       0.052950
     13 H04          0.4230     1.0120     2.5970 h1         1 YEG       0.033700
     14 H05         -0.3100    -1.6830     1.3520 hc         1 YEG       0.052950
     15 H05A        -1.3750    -0.2820     1.6690 hc         1 YEG       0.052950
     16 HO06         0.6630    -0.3100     4.2510 ho         1 YEG       0.399000
@<TRIPOS>BOND
     1     2     1 1
     2     5     1 1
     3     1     7 1
     4     1     8 1
     5     3     2 1
     6     2     9 1
     7     2    10 1
     8     4     3 1
     9     3    11 1
    10     3    12 1
    11     4     6 1
    12     4     5 1
    13     4    13 1
    14     5    14 1
    15     5    15 1
    16     6    16 1
@<TRIPOS>SUBSTRUCTURE
     1 YEG         1 TEMP              0 ****  ****    0 ROOT
