@<TRIPOS>MOLECULE
YEJ
   57    60     1     0     0
SMALL
bcc


@<TRIPOS>ATOM
      1 O3           0.0000     0.0000     0.0000 o          1 YEJ      -0.691500
      2 C19          1.2190     0.0000     0.0000 c          1 YEJ       0.592700
      3 C1           1.9080     0.0000     1.2340 cc         1 YEJ      -0.175400
      4 C            1.1330     0.0000     2.5260 c3         1 YEJ       0.080100
      5 N3           1.8740    -0.0050    -1.1760 ns         1 YEJ       0.055900
      6 C18          3.2500    -0.0060    -1.2160 ca         1 YEJ      -0.263700
      7 C3           3.9820     0.0000    -0.0160 ca         1 YEJ      -0.045800
      8 C2           3.2630     0.0000     1.2580 cd         1 YEJ      -0.033200
      9 C6           3.9530    -0.0120    -2.4280 ca         1 YEJ       0.500200
     10 N            5.2750    -0.0130    -2.4250 nb         1 YEJ      -0.634000
     11 C5           5.9830    -0.0070    -1.3070 ca         1 YEJ       0.425200
     12 C4           5.3830    -0.0020    -0.0800 ca         1 YEJ      -0.237300
     13 N1           3.2610    -0.0180    -3.6330 nu         1 YEJ      -0.506900
     14 C7           3.9960    -0.0240    -4.9000 c3         1 YEJ       0.135500
     15 C11          3.1210    -0.6400    -5.9960 c3         1 YEJ       0.168100
     16 C10          3.8700    -0.5880    -7.3290 c3         1 YEJ       0.120800
     17 N2           4.1900     0.8070    -7.6590 n7         1 YEJ      -0.579200
     18 C9           5.0680     1.4040    -6.6450 c3         1 YEJ       0.149800
     19 C8           4.3540     1.4120    -5.2910 c3         1 YEJ      -0.043400
     20 O            2.8280    -1.9990    -5.6650 os         1 YEJ      -0.407600
     21 C12          1.5700    -2.4590    -6.1620 c3         1 YEJ       0.214400
     22 C13          1.3620    -3.9180    -5.7510 c3         1 YEJ      -0.076700
     23 C17          0.0790    -4.4430    -6.3880 c3         1 YEJ      -0.000400
     24 C16         -0.0160    -5.9590    -6.2030 c3         1 YEJ      -0.004100
     25 S           -0.1320    -6.3320    -4.4290 s6         1 YEJ       0.791000
     26 O1           0.0460    -7.7290    -4.2460 o          1 YEJ      -0.583800
     27 O2          -1.2960    -5.7050    -3.9080 o          1 YEJ      -0.583800
     28 C15          1.3320    -5.4690    -3.7870 c3         1 YEJ      -0.004100
     29 C14          1.2830    -4.0060    -4.2310 c3         1 YEJ      -0.000400
     30 H3           1.3550    -0.0070    -2.0310 hn         1 YEJ       0.170500
     31 HC1          0.5110     0.8860     2.5740 hc         1 YEJ       0.014033
     32 HC2          1.8230    -0.0010     3.3610 hc         1 YEJ       0.014033
     33 HC3          0.5080    -0.8830     2.5730 hc         1 YEJ       0.014033
     34 H2           3.8020     0.0000     2.1980 ha         1 YEJ       0.118000
     35 H4           5.9770     0.0030     0.8250 ha         1 YEJ       0.120000
     36 H1           2.2610     0.0270    -3.6350 hn         1 YEJ       0.290800
     37 H5           7.0650    -0.0080    -1.3670 h4         1 YEJ      -0.021900
     38 H7           4.9030    -0.6060    -4.7950 h1         1 YEJ       0.066700
     39 H11          2.1990    -0.0760    -6.0800 h1         1 YEJ       0.022700
     40 H81C         5.0100     1.8370    -4.5410 hc         1 YEJ       0.031200
     41 H82C         3.4490     2.0020    -5.3650 hc         1 YEJ       0.031200
     42 H101         3.2460    -1.0080    -8.1090 h1         1 YEJ       0.016200
     43 H102         4.7880    -1.1580    -7.2480 h1         1 YEJ       0.016200
     44 HA           4.6390     0.8440    -8.5530 hn         1 YEJ       0.256800
     45 H91C         5.9780     0.8210    -6.5680 h1         1 YEJ       0.011200
     46 H92C         5.3080     2.4210    -6.9300 h1         1 YEJ       0.011200
     47 H121         1.5600    -2.3840    -7.2430 h1         1 YEJ      -0.002300
     48 H122         0.7740    -1.8510    -5.7500 h1         1 YEJ      -0.002300
     49 H13          2.1980    -4.5130    -6.0970 hc         1 YEJ       0.041700
     50 H171         0.0840    -4.2110    -7.4470 hc         1 YEJ       0.033950
     51 H172        -0.7740    -3.9700    -5.9160 hc         1 YEJ       0.033950
     52 H141         0.3540    -3.5610    -3.8950 hc         1 YEJ       0.033950
     53 H142         2.1200    -3.4720    -3.7970 hc         1 YEJ       0.033950
     54 H161         0.8690    -6.4300    -6.6140 h1         1 YEJ       0.070700
     55 H162        -0.8990    -6.3310    -6.7090 h1         1 YEJ       0.070700
     56 H151         1.3350    -5.5190    -2.7050 h1         1 YEJ       0.070700
     57 H152         2.2270    -5.9360    -4.1800 h1         1 YEJ       0.070700
@<TRIPOS>BOND
     1     1     2 2   
     2     2     3 1   
     3     2     5 1   
     4     3     4 1   
     5     3     8 2   
     6     4    31 1   
     7     4    32 1   
     8     4    33 1   
     9     5     6 1   
    10     5    30 1   
    11     6     7 ar  
    12     6     9 ar  
    13     7     8 1   
    14     7    12 ar  
    15     8    34 1   
    16     9    10 ar  
    17     9    13 1   
    18    10    11 ar  
    19    11    12 ar  
    20    11    37 1   
    21    12    35 1   
    22    13    14 1   
    23    13    36 1   
    24    14    15 1   
    25    14    19 1   
    26    14    38 1   
    27    15    16 1   
    28    15    20 1   
    29    15    39 1   
    30    16    17 1   
    31    16    42 1   
    32    16    43 1   
    33    17    18 1   
    34    17    44 1   
    35    18    19 1   
    36    18    45 1   
    37    18    46 1   
    38    19    40 1   
    39    19    41 1   
    40    20    21 1   
    41    21    22 1   
    42    21    47 1   
    43    21    48 1   
    44    22    23 1   
    45    22    29 1   
    46    22    49 1   
    47    23    24 1   
    48    23    50 1   
    49    23    51 1   
    50    24    25 1   
    51    24    54 1   
    52    24    55 1   
    53    25    26 2   
    54    25    27 2   
    55    25    28 1   
    56    28    29 1   
    57    28    56 1   
    58    28    57 1   
    59    29    52 1   
    60    29    53 1   
@<TRIPOS>SUBSTRUCTURE
     1 YEJ         1 TEMP              0 ****  ****    0 ROOT
