@<TRIPOS>MOLECULE
YES
   34    33     1     0     0
SMALL
bcc


@<TRIPOS>ATOM
      1 O1          0.0970    0.4700   -0.1140 oh        1 YES     -0.606800
      2 C1          1.4280    0.0270    0.0430 c3        1 YES      0.133733
      3 C2          1.9140    0.0960    1.5050 c3        1 YES     -0.120000
      4 C3          1.2060   -1.0280    2.2870 c3        1 YES      0.133733
      5 O3          1.4390   -2.2980    1.7140 oh        1 YES     -0.606800
      6 C4          3.4320   -0.1360    1.4850 c3        1 YES      0.133733
      7 O4          3.7940   -0.9370    2.6020 oh        1 YES     -0.606800
      8 C5          1.5460    1.4450    2.1490 c3        1 YES     -0.046700
      9 C6          1.9810    1.5220    3.6100 c3        1 YES     -0.088900
     10 C7          0.7870    1.4540    4.5490 c3        1 YES      0.131400
     11 O7          1.2970    1.5210    5.8720 oh        1 YES     -0.602300
     12 C8          2.1010    2.6360    1.3780 c3        1 YES     -0.088900
     13 C9          1.3410    3.9070    1.7310 c3        1 YES      0.131400
     14 O9          2.0600    4.9870    1.1530 oh        1 YES     -0.602300
     15 H1          1.5310   -1.0340   -0.3170 h1        1 YES      0.047367
     16 H3          1.5340   -1.0210    3.3600 h1        1 YES      0.047367
     17 H4          3.7290   -0.6870    0.5490 h1        1 YES      0.047367
     18 H4A         3.9780    0.8430    1.5170 h1        1 YES      0.047367
     19 HO4         4.7530   -0.8880    2.6800 ho        1 YES      0.409000
     20 H5          0.4180    1.5100    2.0920 hc        1 YES      0.057700
     21 H6          2.5300    2.4810    3.8090 hc        1 YES      0.062950
     22 H6A         2.6960    0.6930    3.8590 hc        1 YES      0.062950
     23 H7          0.2200    0.4960    4.4030 h1        1 YES      0.021450
     24 H7A         0.0920    2.3180    4.3660 h1        1 YES      0.021450
     25 HO7         0.5390    1.4460    6.4630 ho        1 YES      0.399500
     26 H8          3.1880    2.7880    1.6050 hc        1 YES      0.062950
     27 H8A         2.0050    2.4730    0.2740 hc        1 YES      0.062950
     28 H9          0.2990    3.8700    1.3140 h1        1 YES      0.021450
     29 H15        -0.4730   -0.1830    0.3100 ho        1 YES      0.409000
     30 H16         2.0350    0.7010   -0.6180 h1        1 YES      0.047367
     31 H17         0.0920   -0.8890    2.2340 h1        1 YES      0.047367
     32 H18         2.3670   -2.5150    1.8750 ho        1 YES      0.409000
     33 H19         1.2810    4.0440    2.8440 h1        1 YES      0.021450
     34 H20         1.5460    5.7830    1.3280 ho        1 YES      0.399500
@<TRIPOS>BOND
     1    1    2 1   
     2    1   29 1   
     3    2    3 1   
     4    2   15 1   
     5    2   30 1   
     6    3    4 1   
     7    3    6 1   
     8    3    8 1   
     9    4    5 1   
    10    4   16 1   
    11    4   31 1   
    12    5   32 1   
    13    6    7 1   
    14    6   17 1   
    15    6   18 1   
    16    7   19 1   
    17    8    9 1   
    18    8   12 1   
    19    8   20 1   
    20    9   10 1   
    21    9   21 1   
    22    9   22 1   
    23   10   11 1   
    24   10   23 1   
    25   10   24 1   
    26   11   25 1   
    27   12   13 1   
    28   12   26 1   
    29   12   27 1   
    30   13   14 1   
    31   13   28 1   
    32   13   33 1   
    33   14   34 1   
@<TRIPOS>SUBSTRUCTURE
     1 YES         1 TEMP              0 ****  ****    0 ROOT
