@<TRIPOS>MOLECULE
molecule
   34    33     1     0     0
SMALL
bcc


@<TRIPOS>ATOM
      1 O1           0.0000     0.0000     0.0000 oh         1 YES      -0.614800
      2 C1           1.4290     0.0000     0.0000 c3         1 YES       0.146733
      3 C2           1.9390     0.0000     1.4420 c3         1 YES      -0.044000
      4 C3           1.4290    -1.2490     2.1630 c3         1 YES       0.146733
      5 O3           1.9060    -2.4160     1.4890 oh         1 YES      -0.614800
      6 C4           3.4690     0.0010     1.4430 c3         1 YES       0.146733
      7 O4           3.9450    -0.1390     2.7840 oh         1 YES      -0.614800
      8 C5           1.4280     1.2490     2.1650 c3         1 YES      -0.057700
      9 C6           1.9000     1.2260     3.6190 c3         1 YES      -0.080900
     10 C7           0.9050     1.9960     4.4910 c3         1 YES       0.128900
     11 O7           1.3720     2.0170     5.8410 oh         1 YES      -0.612300
     12 C8           1.9740     2.4980     1.4710 c3         1 YES      -0.080900
     13 C9           1.3370     3.7440     2.0880 c3         1 YES       0.128900
     14 O9           1.7460     4.9020     1.3560 oh         1 YES      -0.612300
     15 H1           1.7900     0.8840    -0.5110 h1         1 YES       0.035200
     16 H3           1.7900    -1.2500     3.1840 h1         1 YES       0.035200
     17 H4           3.8310    -0.8260     0.8430 h1         1 YES       0.035200
     18 H4A          3.8300     0.9340     1.0270 h1         1 YES       0.035200
     19 HO4          4.8670    -0.3340     2.7710 ho         1 YES       0.403667
     20 H5           0.3450     1.2650     2.1370 hc         1 YES       0.066700
     21 H6           2.8770     1.6900     3.6890 hc         1 YES       0.063450
     22 H6A          1.9620     0.2000     3.9630 hc         1 YES       0.063450
     23 H7          -0.0620     1.5100     4.4510 h1         1 YES       0.023200
     24 H7A          0.8150     3.0110     4.1240 h1         1 YES       0.023200
     25 HO7          0.6670     2.2690     6.4130 ho         1 YES       0.399500
     26 H8           1.7380     2.4570     0.4140 hc         1 YES       0.063450
     27 H8A          3.0490     2.5410     1.5990 hc         1 YES       0.063450
     28 H9           0.2580     3.6550     2.0490 h1         1 YES       0.023200
     29 H15         -0.3140    -0.0880    -0.8850 ho         1 YES       0.403667
     30 H16          1.7900    -0.8850    -0.5110 h1         1 YES       0.035200
     31 H17          0.3460    -1.2500     2.1630 h1         1 YES       0.035200
     32 H18          1.5550    -3.1850     1.9060 ho         1 YES       0.403667
     33 H19          1.6540     3.8390     3.1200 h1         1 YES       0.023200
     34 H20          1.2210     5.6400     1.6150 ho         1 YES       0.399500
@<TRIPOS>BOND
     1     2     1 1
     2     2    15 1
     3     3     2 1
     4     3     6 1
     5     3     8 1
     6     4     3 1
     7     4    16 1
     8     5     4 1
     9     6    17 1
    10     6    18 1
    11     7     6 1
    12     7    19 1
    13     8     9 1
    14     8    20 1
    15     9    10 1
    16     9    21 1
    17     9    22 1
    18    10    23 1
    19    10    24 1
    20    11    10 1
    21    11    25 1
    22    12     8 1
    23    12    26 1
    24    12    27 1
    25    13    12 1
    26    13    28 1
    27    14    13 1
    28     1    29 1
    29     2    30 1
    30     4    31 1
    31     5    32 1
    32    13    33 1
    33    14    34 1
@<TRIPOS>SUBSTRUCTURE
     1 YES         1 TEMP              0 ****  ****    0 ROOT
