@<TRIPOS>MOLECULE
YET
   62    65     1     0     0
SMALL
bcc


@<TRIPOS>ATOM
      1 O31         1.3920   -1.3710   -1.1270 o         1 YET     -0.813100
      2 C11         1.9470   -0.2550   -0.8560 c         1 YET      0.669100
      3 N27         2.7380   -0.1240    0.2270 n         1 YET     -0.399800
      4 C20         3.0240   -1.2180    1.1510 c3        1 YET      0.077000
      5 C16         3.9910   -0.6760    2.2130 c3        1 YET     -0.090900
      6 C19         3.4320    1.1010    0.6090 c3        1 YET      0.077000
      7 C15         4.2810    0.7770    1.8480 c3        1 YET     -0.090900
      8 C23         1.7430    0.9580   -1.7900 c3        1 YET      0.025000
      9 N26         0.5630    0.8110   -2.6170 n         1 YET     -0.438800
     10 C10         0.5050   -0.3180   -3.3970 c         1 YET      0.715500
     11 O30         1.5370   -0.8660   -3.8480 o         1 YET     -0.662500
     12 C18        -0.4500    1.8410   -2.6080 c3        1 YET      0.088000
     13 C14        -1.6860    1.5640   -1.7620 c3        1 YET     -0.111400
     14 C13        -2.2970    0.2000   -1.9880 c3        1 YET     -0.088400
     15 C17        -2.1170   -0.3160   -3.3990 c3        1 YET     -0.115400
     16 C21        -0.8220   -1.0760   -3.6620 c3        1 YET      0.063500
     17 N29        -0.7600   -2.3460   -2.8220 n4        1 YET     -0.733000
     18 C12         0.0220   -3.4380   -3.4540 c2        1 YET      0.450100
     19 N25         1.4850   -3.4670   -3.0800 n4        1 YET     -0.491600
     20 C1          1.7550   -4.5350   -2.2030 c1        1 YET      0.204600
     21 N24         1.9860   -5.4140   -1.4760 n1        1 YET     -0.116800
     22 N28        -0.3550   -4.3860   -4.2580 ne        1 YET     -0.424100
     23 C7         -1.5400   -4.7250   -4.8380 ca        1 YET      0.013400
     24 C2         -2.7330   -3.9240   -4.8730 ca        1 YET     -0.106000
     25 C4         -1.5340   -6.0100   -5.4850 ca        1 YET      0.069000
     26 C6         -2.6950   -6.4560   -6.0800 ca        1 YET     -0.126800
     27 C8         -3.8730   -5.6300   -6.0640 ca        1 YET      0.162100
     28 C3         -3.8940   -4.3580   -5.4720 ca        1 YET     -0.101000
     29 O32        -4.9070   -6.2570   -6.7060 os        1 YET     -0.157200
     30 C9         -4.3980   -7.5150   -7.1530 cc        1 YET      0.101900
     31 C22        -5.3630   -8.3400   -7.8800 c3        1 YET     -0.065900
     32 C5         -3.0770   -7.6620   -6.7930 cd        1 YET     -0.168200
     33 H20         2.0620   -1.5730    1.6120 h1        1 YET      0.063950
     34 H20A        3.4780   -2.0740    0.5820 h1        1 YET      0.063950
     35 H16         3.5270   -0.7480    3.2280 hc        1 YET      0.080700
     36 H16A        4.9320   -1.2810    2.2240 hc        1 YET      0.080700
     37 H19         4.0770    1.4530   -0.2430 h1        1 YET      0.063950
     38 H19A        2.6780    1.9040    0.8440 h1        1 YET      0.063950
     39 H15         4.0120    1.4630    2.6890 hc        1 YET      0.080700
     40 H15A        5.3660    0.9230    1.6200 hc        1 YET      0.080700
     41 H23         1.6520    1.9040   -1.1840 h1        1 YET      0.110700
     42 H23A        2.6650    1.0270   -2.4430 h1        1 YET      0.110700
     43 H18         0.0260    2.7970   -2.2360 h1        1 YET      0.082200
     44 H18A       -0.7590    2.0310   -3.6780 h1        1 YET      0.082200
     45 H14        -1.4420    1.6780   -0.6720 hc        1 YET      0.084200
     46 H14A       -2.4360    2.3630   -2.0140 hc        1 YET      0.084200
     47 H13        -1.8770   -0.5250   -1.2410 hc        1 YET      0.061200
     48 H13A       -3.4000    0.2690   -1.7730 hc        1 YET      0.061200
     49 H17        -2.9900   -0.9760   -3.6630 hc        1 YET      0.093700
     50 H17A       -2.1480    0.5400   -4.1310 hc        1 YET      0.093700
     51 H21        -0.8040   -1.3910   -4.7520 hx        1 YET      0.134700
     52 HN29       -0.3660   -2.1000   -1.8890 hn        1 YET      0.488800
     53 HN25        1.7850   -2.5560   -2.6280 hn        1 YET      0.531300
     54 H2         -2.7310   -2.9060   -4.4570 ha        1 YET      0.113000
     55 H4         -0.6240   -6.6360   -5.4950 ha        1 YET      0.183000
     56 H3         -4.8070   -3.7410   -5.5040 ha        1 YET      0.190000
     57 H22        -6.3750   -8.2840   -7.4010 hc        1 YET      0.092700
     58 H22A       -5.4570   -7.9800   -8.9380 hc        1 YET      0.092700
     59 H22B       -5.0200   -9.4060   -7.8880 hc        1 YET      0.092700
     60 H5         -2.4280   -8.5140   -6.9940 ha        1 YET      0.201000
     61 H292       -1.7210   -2.6930   -2.6750 hn        1 YET      0.488800
     62 H252        2.0440   -3.5840   -3.9500 hn        1 YET      0.531300
@<TRIPOS>BOND
     1    1    2 2
     2    2    3 1
     3    2    8 1
     4    3    4 1
     5    3    6 1
     6    4    5 1
     7    4   33 1
     8    4   34 1
     9    5    7 1
    10    5   35 1
    11    5   36 1
    12    6    7 1
    13    6   37 1
    14    6   38 1
    15    7   39 1
    16    7   40 1
    17    8    9 1
    18    8   41 1
    19    8   42 1
    20    9   10 1
    21    9   12 1
    22   10   11 2
    23   10   16 1
    24   12   13 1
    25   12   43 1
    26   12   44 1
    27   13   14 1
    28   13   45 1
    29   13   46 1
    30   14   15 1
    31   14   47 1
    32   14   48 1
    33   15   16 1
    34   15   49 1
    35   15   50 1
    36   16   17 1
    37   16   51 1
    38   17   18 1
    39   17   52 1
    40   17   61 1
    41   18   19 1
    42   18   22 2
    43   19   20 1
    44   19   53 1
    45   19   62 1
    46   20   21 3
    47   22   23 1
    48   23   24 ar
    49   23   25 ar
    50   24   28 ar
    51   24   54 1
    52   25   26 ar
    53   25   55 1
    54   26   27 ar
    55   26   32 1
    56   27   28 ar
    57   27   29 1
    58   28   56 1
    59   29   30 1
    60   30   31 1
    61   30   32 2
    62   31   57 1
    63   31   58 1
    64   31   59 1
    65   32   60 1
@<TRIPOS>SUBSTRUCTURE
     1 YET         1 TEMP              0 ****  ****    0 ROOT
