@<TRIPOS>MOLECULE
YEX
   32    35     1     0     0
SMALL
bcc


@<TRIPOS>ATOM
      1 C1           0.0000     0.0000     0.0000 cc         1 YEX      -0.175000
      2 C7           4.2580    -0.0010     0.8520 ca         1 YEX      -0.108000
      3 C8           5.5540     0.0000     1.2800 ca         1 YEX      -0.060000
      4 C2           1.4030     0.0000     0.0000 cc         1 YEX      -0.149000
      5 C19          3.4780     0.0000     3.1450 ca         1 YEX      -0.154000
      6 C5          -0.4110     0.0000     1.2880 cd         1 YEX      -0.327300
      7 C6           3.2080     0.0000     1.7760 ca         1 YEX       0.064000
      8 C9           5.8390     0.0000     2.6500 ca         1 YEX      -0.085000
      9 C18          4.7910     0.0010     3.5860 ca         1 YEX      -0.072300
     10 C3           1.8090     0.0000     1.3010 cd         1 YEX      -0.290300
     11 C11          7.4860     0.0010     4.4420 cc         1 YEX      -0.096000
     12 C10          7.2300     0.0000     3.1160 cd         1 YEX      -0.036300
     13 C12          6.3770     0.0010     5.3980 cc         1 YEX      -0.114300
     14 C15          4.2530     0.0000     6.0260 c          1 YEX       0.424300
     15 C20          8.3640    -0.0010     2.1240 c3         1 YEX       0.059200
     16 N13          6.3630     0.0020     6.7100 nd         1 YEX      -0.337600
     17 N4           0.6890     0.0000     2.0920 na         1 YEX       0.420900
     18 N14          5.0260     0.0000     7.1290 ns         1 YEX       0.109100
     19 N17          5.0690     0.0010     4.9500 n          1 YEX       0.346800
     20 O16          3.0350    -0.0020     6.0020 o          1 YEX      -0.721500
     21 H1          -0.6390     0.0000    -0.8750 ha         1 YEX       0.125000
     22 H2           2.0450     0.0000    -0.8730 ha         1 YEX       0.126000
     23 H5          -1.4410     0.0000     1.6230 h4         1 YEX       0.144000
     24 H8           6.3620    -0.0010     0.5580 ha         1 YEX       0.114000
     25 H19          2.6640     0.0010     3.8600 ha         1 YEX       0.152000
     26 H4           0.6800    -0.0000     3.0930 hn         1 YEX       0.119700
     27 H11          8.5070    -0.0660     4.7970 ha         1 YEX       0.132000
     28 H201         8.2960     0.8800     1.4970 hc         1 YEX       0.015700
     29 H202         9.3090     0.0060     2.6550 hc         1 YEX       0.015700
     30 H203         8.3040    -0.8890     1.5070 hc         1 YEX       0.015700
     31 H14          4.7030    -0.0010     8.0770 hn         1 YEX       0.224500
     32 H7           4.0410    -0.0010    -0.2100 ha         1 YEX       0.118000
@<TRIPOS>BOND
     1     1     4 1   
     2     1     6 2   
     3     1    21 1   
     4     2     3 ar  
     5     2     7 ar  
     6     2    32 1   
     7     3     8 ar  
     8     3    24 1   
     9     4    10 2   
    10     4    22 1   
    11     5     7 ar  
    12     5     9 ar  
    13     5    25 1   
    14     6    17 1   
    15     6    23 1   
    16     7    10 1   
    17     8     9 ar  
    18     8    12 1   
    19     9    19 1   
    20    10    17 1   
    21    11    12 2   
    22    11    13 1   
    23    11    27 1   
    24    12    15 1   
    25    13    16 2   
    26    13    19 1   
    27    14    18 1   
    28    14    19 1   
    29    14    20 2   
    30    15    28 1   
    31    15    29 1   
    32    15    30 1   
    33    16    18 1   
    34    17    26 1   
    35    18    31 1   
@<TRIPOS>SUBSTRUCTURE
     1 YEX         1 TEMP              0 ****  ****    0 ROOT
