@<TRIPOS>MOLECULE
YF1
   18    18     1     0     0
SMALL
bcc


@<TRIPOS>ATOM
      1 C1           0.0000     0.0000     0.0000 c3         1 YF1      -0.032400
      2 C2           1.5070     0.0000     0.0000 ca         1 YF1       0.595300
      3 N1           2.1470     0.0000     1.1500 nb         1 YF1      -0.624000
      4 C3           3.4710     0.0010     1.1960 ca         1 YF1       0.441200
      5 C4           4.1850     0.0020     0.0130 ca         1 YF1      -0.342900
      6 C5           5.6920     0.0030     0.0220 c3         1 YF1       0.085200
      7 C6           3.4760     0.0030    -1.1890 ca         1 YF1       0.532200
      8 N2           4.1460     0.0040    -2.4000 nv         1 YF1      -0.654500
      9 N3           2.1470    -0.0030    -1.1510 nb         1 YF1      -0.630000
     10 H11         -0.3610     0.1540     1.0100 hc         1 YF1       0.018033
     11 H12         -0.3610    -0.9510    -0.3720 hc         1 YF1       0.018033
     12 H13         -0.3610     0.7980    -0.6380 hc         1 YF1       0.018033
     13 H3           3.9870     0.0010     2.1480 h4         1 YF1      -0.013900
     14 H51          6.0560    -0.8810    -0.4880 hc         1 YF1       0.009367
     15 H52          6.0470     0.0020     1.0450 hc         1 YF1       0.009367
     16 H53          6.0550     0.8880    -0.4860 hc         1 YF1       0.009367
     17 HN21         4.3670    -0.8630    -2.8500 hn         1 YF1       0.279800
     18 HN22         4.3710     0.8710    -2.8470 hn         1 YF1       0.279800
@<TRIPOS>BOND
     1     1     2 1   
     2     1    10 1   
     3     1    11 1   
     4     1    12 1   
     5     2     3 ar  
     6     2     9 ar  
     7     3     4 ar  
     8     4     5 ar  
     9     4    13 1   
    10     5     6 1   
    11     5     7 ar  
    12     6    14 1   
    13     6    15 1   
    14     6    16 1   
    15     7     8 1   
    16     7     9 ar  
    17     8    17 1   
    18     8    18 1   
@<TRIPOS>SUBSTRUCTURE
     1 YF1         1 TEMP              0 ****  ****    0 ROOT
