@<TRIPOS>MOLECULE
molecule
   30    30     1     0     0
SMALL
bcc


@<TRIPOS>ATOM
      1 N1'          0.0000     0.0000     0.0000 nb         1 YF3      -0.745000
      2 C2'          1.3180     0.0000     0.0000 ca         1 YF3       0.690300
      3 CM2          2.0500    -0.0000    -1.3180 c3         1 YF3      -0.122400
      4 N3'          2.0130     0.0000     1.1180 nb         1 YF3      -0.759000
      5 C4'          1.3990     0.0050     2.2980 ca         1 YF3       0.714200
      6 N4'          2.1340     0.0050     3.4730 nv         1 YF3      -1.082500
      7 C5'          0.0030    -0.0010     2.3340 ca         1 YF3      -0.349900
      8 C6'         -0.6830     0.0000     1.1360 ca         1 YF3       0.474200
      9 C7'         -0.7350    -0.0000     3.6460 c3         1 YF3       0.209100
     10 N3          -2.1820    -0.0010     3.3940 n7         1 YF3      -0.790200
     11 C4          -2.8390    -0.0010     4.7090 c3         1 YF3       0.166500
     12 CM4         -3.0670     1.4420     5.1650 c3         1 YF3      -0.125100
     13 C2          -4.1840    -0.7210     4.6060 c3         1 YF3       0.049700
     14 HM21         1.6220    -0.7530    -1.9690 hc         1 YF3       0.058700
     15 HM22         1.9580     0.9740    -1.7830 hc         1 YF3       0.058700
     16 HM23         3.0970    -0.2220    -1.1490 hc         1 YF3       0.058700
     17 H4'1         2.3690    -0.8610     3.9150 hn         1 YF3       0.439300
     18 H4'2         2.4690     0.8680     3.8530 hn         1 YF3       0.439300
     19 H6'         -1.7660    -0.0020     1.1250 h4         1 YF3       0.046100
     20 H7'1        -0.4670     0.8850     4.2110 h1         1 YF3       0.048200
     21 H7'2        -0.4660    -0.8840     4.2120 h1         1 YF3       0.048200
     22 HN3         -2.4340     0.8290     2.8950 hn         1 YF3       0.352800
     23 H4          -2.2100    -0.5120     5.4270 h1         1 YF3       0.073700
     24 HM41        -3.6460     1.4440     6.0800 hc         1 YF3       0.043033
     25 HM42        -3.6050     1.9830     4.3960 hc         1 YF3       0.043033
     26 HM43        -2.1110     1.9200     5.3410 hc         1 YF3       0.043033
     27 HS1         -5.0650    -3.0920     4.0980 hs         1 YF3       0.201800
     28 H21         -4.6690    -0.7210     5.5750 h1         1 YF3       0.055700
     29 H22         -4.8140    -0.2100     3.8880 h1         1 YF3       0.055700
     30 S1          -3.9150    -2.4310     4.0650 sh         1 YF3      -0.394900
@<TRIPOS>BOND
     1     1     2 ar
     2     1     8 ar
     3     2     3 1
     4     2     4 ar
     5     3    14 1
     6     3    15 1
     7     3    16 1
     8     4     5 ar
     9     5     6 1
    10     5     7 ar
    11     6    17 1
    12     6    18 1
    13     7     8 ar
    14     7     9 1
    15     8    19 1
    16     9    10 1
    17     9    20 1
    18     9    21 1
    19    10    11 1
    20    10    22 1
    21    11    12 1
    22    11    13 1
    23    11    23 1
    24    12    24 1
    25    12    25 1
    26    12    26 1
    27    30    13 1
    28    30    27 1
    29    13    28 1
    30    13    29 1
@<TRIPOS>SUBSTRUCTURE
     1 YF3         1 TEMP              0 ****  ****    0 ROOT
