@<TRIPOS>MOLECULE
molecule
   29    29     1     0     0
SMALL
bcc


@<TRIPOS>ATOM
      1 N1'          0.0000     0.0000     0.0000 nb         1 YF4      -0.784000
      2 C2'          1.3180     0.0000     0.0000 ca         1 YF4       0.721300
      3 CM2          2.0500    -0.0010    -1.3170 c3         1 YF4      -0.122400
      4 N3'          2.0120     0.0000     1.1180 nb         1 YF4      -0.810000
      5 C4'          1.3970     0.0060     2.2980 ca         1 YF4       0.731200
      6 N4'          2.1310     0.0060     3.4730 nv         1 YF4      -1.008500
      7 C5'          0.0020     0.0010     2.3340 ca         1 YF4      -0.411900
      8 C6'         -0.6840     0.0010     1.1360 ca         1 YF4       0.508200
      9 C7'         -0.7370     0.0020     3.6470 c3         1 YF4       0.195100
     10 CM4         -4.3730    -0.1260     4.4480 c3         1 YF4      -0.093100
     11 C4          -2.8610    -0.2490     4.6380 c3         1 YF4       0.133800
     12 N3          -2.1770     0.1420     3.3980 n3         1 YF4      -0.674600
     13 C2          -2.4350     1.5750     3.2070 c3         1 YF4       0.116100
     14 HM21         2.5510    -0.9530    -1.4500 hc         1 YF4       0.058033
     15 HM22         1.3440     0.1510    -2.1240 hc         1 YF4       0.058033
     16 HM23         2.7830     0.7970    -1.3230 hc         1 YF4       0.058033
     17 H4'1         1.6850    -0.2110     4.3420 hn         1 YF4       0.441300
     18 H4'2         3.1140     0.1940     3.4490 hn         1 YF4       0.441300
     19 H6'         -1.7670    -0.0010     1.1240 h4         1 YF4       0.050100
     20 H7'1        -0.3930     0.8300     4.2540 h1         1 YF4       0.039200
     21 H7'2        -0.5500    -0.9300     4.1670 h1         1 YF4       0.039200
     22 HM41        -4.6760     0.9000     4.6190 hc         1 YF4       0.040700
     23 HM42        -4.8800    -0.7740     5.1520 hc         1 YF4       0.040700
     24 HM43        -4.6350    -0.4160     3.4370 hc         1 YF4       0.040700
     25 H41         -2.6100    -1.2740     4.8810 h1         1 YF4       0.035200
     26 H42         -2.5440     0.4010     5.4450 h1         1 YF4       0.035200
     27 H21         -2.5070     2.0610     4.1720 h1         1 YF4       0.039700
     28 H22         -3.3640     1.7060     2.6660 h1         1 YF4       0.039700
     29 H23         -1.6230     2.0160     2.6410 h1         1 YF4       0.039700
@<TRIPOS>BOND
     1     1     2 ar
     2     1     8 ar
     3     2     3 1
     4     2     4 ar
     5     3    14 1
     6     3    15 1
     7     3    16 1
     8     4     5 ar
     9     5     6 1
    10     5     7 ar
    11     6    17 1
    12     6    18 1
    13     7     8 ar
    14     7     9 1
    15     8    19 1
    16     9    12 1
    17     9    20 1
    18     9    21 1
    19    10    11 1
    20    10    22 1
    21    10    23 1
    22    10    24 1
    23    11    12 1
    24    11    25 1
    25    11    26 1
    26    12    13 1
    27    13    27 1
    28    13    28 1
    29    13    29 1
@<TRIPOS>SUBSTRUCTURE
     1 YF4         1 TEMP              0 ****  ****    0 ROOT
