@<TRIPOS>MOLECULE
YFB
   61    62     1     0     0
SMALL
bcc


@<TRIPOS>ATOM
      1 CAB         0.7070   -0.6210    0.4130 c3        1 YFB     -0.053900
      2 CAV         1.9110    0.2050    0.1580 c2        1 YFB     -0.141400
      3 CAC         2.7910    0.4510    1.3250 c3        1 YFB     -0.053900
      4 CAH         2.1870    0.7060   -1.0580 c2        1 YFB     -0.164200
      5 CAP         1.3330    0.4790   -2.2460 c3        1 YFB     -0.050200
      6 CAR         1.8100    1.2630   -3.4550 c3        1 YFB     -0.030200
      7 CAW         0.9600    0.9900   -4.6510 c2        1 YFB     -0.144400
      8 CAD         1.2240   -0.2850   -5.3600 c3        1 YFB     -0.060900
      9 CAI         0.0170    1.8630   -5.0390 c2        1 YFB     -0.138200
     10 CAQ        -0.8690    1.7030   -6.2210 c3        1 YFB      0.022100
     11 CBC        -2.2860    1.4790   -5.8240 ca        1 YFB     -0.168300
     12 CBB        -3.1030    2.5490   -5.4140 ca        1 YFB      0.132100
     13 CAO        -4.4370    2.3510   -5.0650 ca        1 YFB     -0.261000
     14 OAU        -2.4790    3.7920   -5.3880 os        1 YFB     -0.340900
     15 CAA        -3.3260    4.9020   -5.1350 c3        1 YFB      0.120700
     16 CAZ        -2.8640    0.1920   -5.8650 ca        1 YFB      0.204100
     17 OAG        -2.0300   -0.8100   -6.2840 oh        1 YFB     -0.547100
     18 CBD        -4.2090   -0.0350   -5.4890 ca        1 YFB     -0.218600
     19 CAX        -4.7700   -1.4460   -5.5270 c         1 YFB      0.918200
     20 OAF        -4.3600   -2.2190   -6.4470 o         1 YFB     -0.834300
     21 OAE        -5.6000   -1.8130   -4.6500 o         1 YFB     -0.834300
     22 CBA        -4.9860    1.0590   -5.1010 ca        1 YFB      0.007700
     23 CAT        -6.4210    0.9040   -4.7230 c3        1 YFB     -0.026100
     24 CAS        -6.5690    0.6740   -3.2260 c3        1 YFB     -0.037100
     25 CAY        -7.9580    0.2750   -2.8720 ca        1 YFB     -0.059300
     26 CAM        -8.4100   -1.0050   -3.2300 ca        1 YFB     -0.129000
     27 CAK        -9.7020   -1.4050   -2.8990 ca        1 YFB     -0.144000
     28 CAJ       -10.5530   -0.5380   -2.2090 ca        1 YFB     -0.152000
     29 CAL       -10.1060    0.7320   -1.8510 ca        1 YFB     -0.144000
     30 CAN        -8.8130    1.1380   -2.1810 ca        1 YFB     -0.129000
     31 HAB1       -0.2200   -0.0100    0.2640 hc        1 YFB      0.037200
     32 HAB2        0.6640   -1.4820   -0.3010 hc        1 YFB      0.037200
     33 HAB3        0.7020   -1.0230    1.4550 hc        1 YFB      0.037200
     34 HAC1        3.6620    1.0980    1.0570 hc        1 YFB      0.037200
     35 HAC2        2.2150    0.9550    2.1410 hc        1 YFB      0.037200
     36 HAC3        3.1810   -0.5190    1.7230 hc        1 YFB      0.037200
     37 HAH         3.0880    1.3200   -1.2170 ha        1 YFB      0.113000
     38 HAP1        0.2710    0.7660   -2.0110 hc        1 YFB      0.059700
     39 HAP2        1.3190   -0.6190   -2.4930 hc        1 YFB      0.059700
     40 HAR1        2.8740    0.9850   -3.6860 hc        1 YFB      0.032700
     41 HAR2        1.7990    2.3580   -3.2110 hc        1 YFB      0.032700
     42 HAD1        1.8370   -0.9760   -4.7320 hc        1 YFB      0.042700
     43 HAD2        0.2600   -0.7990   -5.6160 hc        1 YFB      0.042700
     44 HAD3        1.7800   -0.0910   -6.3110 hc        1 YFB      0.042700
     45 HAI        -0.1660    2.7870   -4.4630 ha        1 YFB      0.119000
     46 HAQ1       -0.5240    0.8550   -6.8720 hc        1 YFB      0.052200
     47 HAQ2       -0.8090    2.6470   -6.8330 hc        1 YFB      0.052200
     48 HAO        -5.0730    3.1900   -4.7540 ha        1 YFB      0.119000
     49 HAA1       -3.7430    4.8530   -4.0990 h1        1 YFB      0.032033
     50 HAA2       -4.1540    4.9550   -5.8830 h1        1 YFB      0.032033
     51 HAA3       -2.6450    5.7850   -5.2390 h1        1 YFB      0.032033
     52 HAG        -2.5530   -1.6270   -6.4260 ho        1 YFB      0.480000
     53 HAT1       -6.9960    1.8190   -5.0250 hc        1 YFB      0.053700
     54 HAT2       -6.8570    0.0210   -5.2680 hc        1 YFB      0.053700
     55 HAS1       -5.8690   -0.1620   -2.9390 hc        1 YFB      0.061700
     56 HAS2       -6.2690    1.5990   -2.6680 hc        1 YFB      0.061700
     57 HAM        -7.7180   -1.6780   -3.7740 ha        1 YFB      0.157500
     58 HAN        -8.4640    2.1410   -1.8960 ha        1 YFB      0.157500
     59 HAK       -10.0520   -2.4080   -3.1820 ha        1 YFB      0.116000
     60 HAJ       -11.5710   -0.8580   -1.9490 ha        1 YFB      0.111000
     61 HAL       -10.7720    1.4160   -1.3070 ha        1 YFB      0.116000
@<TRIPOS>BOND
     1    1    2 1   
     2    1   31 1   
     3    1   32 1   
     4    1   33 1   
     5    2    3 1   
     6    2    4 2   
     7    3   34 1   
     8    3   35 1   
     9    3   36 1   
    10    4    5 1   
    11    4   37 1   
    12    5    6 1   
    13    5   38 1   
    14    5   39 1   
    15    6    7 1   
    16    6   40 1   
    17    6   41 1   
    18    7    8 1   
    19    7    9 2   
    20    8   42 1   
    21    8   43 1   
    22    8   44 1   
    23    9   10 1   
    24    9   45 1   
    25   10   11 1   
    26   10   46 1   
    27   10   47 1   
    28   11   12 ar  
    29   11   16 ar  
    30   12   13 ar  
    31   12   14 1   
    32   13   22 ar  
    33   13   48 1   
    34   14   15 1   
    35   15   49 1   
    36   15   50 1   
    37   15   51 1   
    38   16   17 1   
    39   16   18 ar  
    40   17   52 1   
    41   18   19 1   
    42   18   22 ar  
    43   19   20 1   
    44   19   21 1   
    45   22   23 1   
    46   23   24 1   
    47   23   53 1   
    48   23   54 1   
    49   24   25 1   
    50   24   55 1   
    51   24   56 1   
    52   25   26 ar  
    53   25   30 ar  
    54   26   27 ar  
    55   26   57 1   
    56   27   28 ar  
    57   27   59 1   
    58   28   29 ar  
    59   28   60 1   
    60   29   30 ar  
    61   29   61 1   
    62   30   58 1   
@<TRIPOS>SUBSTRUCTURE
     1 YFB         1 TEMP              0 ****  ****    0 ROOT
