@<TRIPOS>MOLECULE
molecule
   61    62     1     0     0
SMALL
bcc


@<TRIPOS>ATOM
      1 CAB          0.0000     0.0000     0.0000 c3         1 YFB      -0.093400
      2 CAV          1.5070     0.0000     0.0000 c2         1 YFB       0.020600
      3 CAC          2.2600     0.0000     1.3050 c3         1 YFB      -0.093400
      4 CAH          2.1620     0.0000    -1.1340 c2         1 YFB      -0.551200
      5 CAP          1.4090     0.0020    -2.4400 c3         1 YFB      -0.085200
      6 CAR          1.8710     1.1830    -3.2940 c3         1 YFB       0.012800
      7 CAW          1.1170     1.1830    -4.6000 c2         1 YFB      -0.162400
      8 CAD          1.6070     0.3460    -5.7520 c3         1 YFB      -0.049900
      9 CAI          0.0380     1.9130    -4.7320 c2         1 YFB      -0.140200
     10 CAQ         -0.7860     1.8180    -5.9910 c3         1 YFB       0.014100
     11 CBC         -2.2180     1.5180    -5.6340 ca         1 YFB      -0.145300
     12 CBB         -3.1090     2.5580    -5.4060 ca         1 YFB       0.119100
     13 CAO         -4.4330     2.2880    -5.0740 ca         1 YFB      -0.237000
     14 OAU         -2.6860     3.8440    -5.5070 os         1 YFB      -0.338900
     15 CAA         -3.6540     4.8660    -5.2600 c3         1 YFB       0.133700
     16 CAZ         -2.6460     0.2060    -5.5370 ca         1 YFB       0.158100
     17 OAG         -1.7790    -0.8110    -5.7640 oh         1 YFB      -0.520100
     18 CBD         -3.9830    -0.0690    -5.2030 ca         1 YFB      -0.140600
     19 CAX         -4.4470    -1.4600    -5.0990 c          1 YFB       0.884200
     20 OAF         -4.9450    -2.0880    -6.1830 o          1 YFB      -0.832800
     21 OAE         -4.3830    -2.0440    -4.0350 o          1 YFB      -0.832800
     22 CBA         -4.8700     0.9880    -4.9700 ca         1 YFB      -0.025300
     23 CAT         -6.3040     0.7010    -4.6100 c3         1 YFB      -0.026100
     24 CAS         -6.4170     0.4750    -3.1010 c3         1 YFB      -0.042100
     25 CAY         -7.8520     0.1890    -2.7410 ca         1 YFB      -0.064300
     26 CAM         -8.3170    -1.1130    -2.7370 ca         1 YFB      -0.123000
     27 CAK         -9.6330    -1.3750    -2.4070 ca         1 YFB      -0.137500
     28 CAJ        -10.4840    -0.3360    -2.0800 ca         1 YFB      -0.149000
     29 CAL        -10.0200     0.9660    -2.0830 ca         1 YFB      -0.137500
     30 CAN         -8.7020     1.2280    -2.4090 ca         1 YFB      -0.123000
     31 HAB1        -0.3610    -0.8590    -0.5520 hc         1 YFB       0.049533
     32 HAB2        -0.3610     0.9080    -0.4680 hc         1 YFB       0.049533
     33 HAB3        -0.3610    -0.0480     1.0200 hc         1 YFB       0.049533
     34 HAC1         1.8910    -0.8000     1.9350 hc         1 YFB       0.049533
     35 HAC2         2.1150     0.9500     1.8060 hc         1 YFB       0.049533
     36 HAC3         3.3160    -0.1490     1.1130 hc         1 YFB       0.049533
     37 HAH          1.6960    -0.8740    -1.5720 ha         1 YFB       0.353000
     38 HAP1         1.6030    -0.9240    -2.9690 hc         1 YFB       0.046200
     39 HAP2         0.3470     0.0910    -2.2440 hc         1 YFB       0.046200
     40 HAR1         2.9330     1.0940    -3.4900 hc         1 YFB       0.049700
     41 HAR2         1.6780     2.1090    -2.7660 hc         1 YFB       0.049700
     42 HAD1         1.6860     0.9630    -6.6390 hc         1 YFB       0.039033
     43 HAD2         0.9080    -0.4610    -5.9350 hc         1 YFB       0.039033
     44 HAD3         2.5790    -0.0670    -5.5110 hc         1 YFB       0.039033
     45 HAI         -0.3120     2.5160    -3.9030 ha         1 YFB       0.124000
     46 HAQ1        -0.7360     2.7590    -6.5260 hc         1 YFB       0.052200
     47 HAQ2        -0.3970     1.0250    -6.6180 hc         1 YFB       0.052200
     48 HAO         -5.1220     3.1050    -4.8960 ha         1 YFB       0.118000
     49 HAA1        -4.0220     4.7770    -4.2450 h1         1 YFB       0.031367
     50 HAA2        -3.1940     5.8380    -5.3930 h1         1 YFB       0.031367
     51 HAA3        -4.4780     4.7580    -5.9550 h1         1 YFB       0.031367
     52 HAG         -2.0440    -1.2850    -6.5350 ho         1 YFB       0.433000
     53 HAT1        -6.6370    -0.1870    -5.1330 hc         1 YFB       0.057700
     54 HAT2        -6.9240     1.5420    -4.8960 hc         1 YFB       0.057700
     55 HAS1        -6.0830     1.3630    -2.5770 hc         1 YFB       0.064700
     56 HAS2        -5.7980    -0.3670    -2.8150 hc         1 YFB       0.064700
     57 HAM         -7.6500    -1.9270    -2.9930 ha         1 YFB       0.142000
     58 HAN         -8.3370     2.2480    -2.4120 ha         1 YFB       0.142000
     59 HAK         -9.9980    -2.3950    -2.4040 ha         1 YFB       0.117000
     60 HAJ        -11.5170    -0.5410    -1.8230 ha         1 YFB       0.112000
     61 HAL        -10.6860     1.7800    -1.8250 ha         1 YFB       0.117000
@<TRIPOS>BOND
     1     1     2 1
     2     2     3 1
     3     2     4 2
     4     4     5 1
     5     5     6 1
     6     6     7 1
     7     7     8 1
     8     7     9 2
     9     9    10 1
    10    10    11 1
    11    11    12 ar
    12    11    16 ar
    13    12    13 ar
    14    12    14 1
    15    13    22 ar
    16    14    15 1
    17    16    17 1
    18    16    18 ar
    19    18    19 1
    20    18    22 ar
    21    19    20 1
    22    19    21 1
    23    22    23 1
    24    23    24 1
    25    24    25 1
    26    25    26 ar
    27    25    30 ar
    28    26    27 ar
    29    27    28 ar
    30    28    29 ar
    31    29    30 ar
    32     1    31 1
    33     1    32 1
    34     1    33 1
    35     3    34 1
    36     3    35 1
    37     3    36 1
    38     4    37 1
    39     5    38 1
    40     5    39 1
    41     6    40 1
    42     6    41 1
    43     8    42 1
    44     8    43 1
    45     8    44 1
    46     9    45 1
    47    10    46 1
    48    10    47 1
    49    13    48 1
    50    15    49 1
    51    15    50 1
    52    15    51 1
    53    17    52 1
    54    23    53 1
    55    23    54 1
    56    24    55 1
    57    24    56 1
    58    26    57 1
    59    30    58 1
    60    27    59 1
    61    28    60 1
    62    29    61 1
@<TRIPOS>SUBSTRUCTURE
     1 YFB         1 TEMP              0 ****  ****    0 ROOT
