@<TRIPOS>MOLECULE
molecule
   47    47     1     0     0
SMALL
bcc


@<TRIPOS>ATOM
      1 CAA          0.0000     0.0000     0.0000 c3         1 YFD      -0.092100
      2 CAJ          1.5300     0.0000     0.0000 c3         1 YFD      -0.083400
      3 CAL          2.0390     0.0000     1.4430 c3         1 YFD      -0.078400
      4 CAM          3.5690    -0.0010     1.4430 c3         1 YFD      -0.083400
      5 CAN          4.0790    -0.0000     2.8870 c3         1 YFD      -0.030100
      6 CAS          5.5860    -0.0010     2.8870 ca         1 YFD      -0.018300
      7 CAV          6.2850     1.2070     2.7810 ca         1 YFD      -0.122600
      8 CAQ          5.5520     2.4770     2.6690 c          1 YFD       0.888200
      9 OAF          5.2170     2.9580     1.4550 o          1 YFD      -0.829300
     10 OAE          5.2480     3.0940     3.6710 o          1 YFD      -0.829300
     11 CAR          7.6880     1.2010     2.7830 ca         1 YFD       0.181100
     12 OAG          8.3760     2.3650     2.6820 oh         1 YFD      -0.497100
     13 CAI          6.2670    -1.1790     2.9970 ca         1 YFD      -0.227000
     14 CAT          7.6590    -1.1900     3.0000 ca         1 YFD       0.093100
     15 OAO          8.3260    -2.3660     3.1090 os         1 YFD      -0.357900
     16 CAB          7.5350    -3.5520     3.2180 c3         1 YFD       0.136700
     17 CAU          8.3680    -0.0010     2.8890 ca         1 YFD      -0.189300
     18 CAK          9.8740    -0.0200     2.8920 c3         1 YFD      -0.027900
     19 CAH         10.3770     0.1000     4.3070 c2         1 YFD      -0.476200
     20 CAP         11.2110    -0.7910     4.7830 c2         1 YFD      -0.013400
     21 CAD         11.5620    -2.0080     3.9670 c3         1 YFD      -0.085400
     22 CAC         11.8220    -0.5970     6.1480 c3         1 YFD      -0.085400
     23 HAA1        -0.3610     0.8600     0.5510 hc         1 YFD       0.024367
     24 HAA2        -0.3610     0.0470    -1.0200 hc         1 YFD       0.024367
     25 HAA3        -0.3610    -0.9070     0.4690 hc         1 YFD       0.024367
     26 HAJ1         1.8920     0.8850    -0.5100 hc         1 YFD       0.041700
     27 HAJ2         1.8920    -0.8850    -0.5100 hc         1 YFD       0.041700
     28 HAL1         1.6790     0.8850     1.9540 hc         1 YFD       0.035200
     29 HAL2         1.6770    -0.8840     1.9540 hc         1 YFD       0.035200
     30 HAM1         3.9310     0.8830     0.9320 hc         1 YFD       0.060700
     31 HAM2         3.9300    -0.8860     0.9340 hc         1 YFD       0.060700
     32 HAN1         3.7170     0.8850     3.3970 hc         1 YFD       0.050700
     33 HAN2         3.7170    -0.8840     3.3980 hc         1 YFD       0.050700
     34 HAI          5.7210    -2.1110     3.0820 ha         1 YFD       0.118000
     35 HAG          8.4180     2.6270     1.7770 ho         1 YFD       0.421000
     36 HAB1         6.9160    -3.6560     2.3350 h1         1 YFD       0.034033
     37 HAB2         6.9030    -3.4840     4.0960 h1         1 YFD       0.034033
     38 HAB3         8.1850    -4.4130     3.3070 h1         1 YFD       0.034033
     39 HAK1        10.2460     0.8120     2.3060 hc         1 YFD       0.060700
     40 HAK2        10.2250    -0.9500     2.4610 hc         1 YFD       0.060700
     41 HAH          9.5420    -0.5430     4.0530 ha         1 YFD       0.364000
     42 HAD1        12.3920    -2.5270     4.4300 hc         1 YFD       0.042367
     43 HAD2        10.7050    -2.6690     3.9180 hc         1 YFD       0.042367
     44 HAD3        11.8410    -1.7030     2.9650 hc         1 YFD       0.042367
     45 HAC1        11.3470     0.2430     6.6400 hc         1 YFD       0.042367
     46 HAC2        11.6750    -1.4920     6.7400 hc         1 YFD       0.042367
     47 HAC3        12.8830    -0.4020     6.0440 hc         1 YFD       0.042367
@<TRIPOS>BOND
     1     1     2 1
     2     2     3 1
     3     3     4 1
     4     4     5 1
     5     5     6 1
     6     6     7 ar
     7     6    13 ar
     8     7     8 1
     9     7    11 ar
    10     8     9 1
    11     8    10 1
    12    11    12 1
    13    11    17 ar
    14    13    14 ar
    15    14    15 1
    16    14    17 ar
    17    15    16 1
    18    17    18 1
    19    18    19 1
    20    19    20 2
    21    20    21 1
    22    20    22 1
    23     1    23 1
    24     1    24 1
    25     1    25 1
    26     2    26 1
    27     2    27 1
    28     3    28 1
    29     3    29 1
    30     4    30 1
    31     4    31 1
    32     5    32 1
    33     5    33 1
    34    13    34 1
    35    12    35 1
    36    16    36 1
    37    16    37 1
    38    16    38 1
    39    18    39 1
    40    18    40 1
    41    19    41 1
    42    21    42 1
    43    21    43 1
    44    21    44 1
    45    22    45 1
    46    22    46 1
    47    22    47 1
@<TRIPOS>SUBSTRUCTURE
     1 YFD         1 TEMP              0 ****  ****    0 ROOT
