@<TRIPOS>MOLECULE
YFD
   47    47     1     0     0
SMALL
bcc


@<TRIPOS>ATOM
      1 CAA        -0.0400   -0.3130    0.0980 c3        1 YFD     -0.089100
      2 CAJ         1.4660   -0.3210    0.0870 c3        1 YFD     -0.080400
      3 CAL         2.0360   -0.0260    1.4590 c3        1 YFD     -0.078400
      4 CAM         3.5500   -0.0380    1.4420 c3        1 YFD     -0.071400
      5 CAN         4.1100    0.2680    2.8180 c3        1 YFD     -0.056100
      6 CAS         5.6020    0.2280    2.8180 ca        1 YFD      0.010700
      7 CAV         6.3800    1.3860    2.8410 ca        1 YFD     -0.210600
      8 CAQ         5.7820    2.7830    2.8980 c         1 YFD      0.915200
      9 OAF         6.3210    3.6750    2.1710 o         1 YFD     -0.829800
     10 OAE         4.8170    3.0220    3.6730 o         1 YFD     -0.829800
     11 CAR         7.7890    1.2520    2.8040 ca        1 YFD      0.196100
     12 OAG         8.6370    2.3280    2.7900 oh        1 YFD     -0.545100
     13 CAI         6.2100   -1.0390    2.7910 ca        1 YFD     -0.262000
     14 CAT         7.5980   -1.1500    2.7920 ca        1 YFD      0.133100
     15 OAO         8.2710   -2.3690    2.7690 os        1 YFD     -0.341900
     16 CAB         7.4550   -3.5260    2.8420 c3        1 YFD      0.121700
     17 CAU         8.4210   -0.0090    2.7920 ca        1 YFD     -0.169300
     18 CAK         9.9050   -0.1180    2.7560 c3        1 YFD      0.021100
     19 CAH        10.5050    0.0910    4.0990 c2        1 YFD     -0.126200
     20 CAP        11.2180   -0.8160    4.7830 c2        1 YFD     -0.163400
     21 CAD        11.4750   -2.1890    4.2840 c3        1 YFD     -0.047900
     22 CAC        11.7970   -0.5010    6.1130 c3        1 YFD     -0.047900
     23 HAA1       -0.4400   -0.5290   -0.9220 hc        1 YFD      0.025367
     24 HAA2       -0.4340   -1.0860    0.8020 hc        1 YFD      0.025367
     25 HAA3       -0.4250    0.6830    0.4240 hc        1 YFD      0.025367
     26 HAJ1        1.8350   -1.3200   -0.2650 hc        1 YFD      0.035700
     27 HAJ2        1.8420    0.4450   -0.6420 hc        1 YFD      0.035700
     28 HAL1        1.6760    0.9770    1.8090 hc        1 YFD      0.038700
     29 HAL2        1.6610   -0.7880    2.1920 hc        1 YFD      0.038700
     30 HAM1        3.9240    0.7270    0.7110 hc        1 YFD      0.038700
     31 HAM2        3.9170   -1.0400    1.0950 hc        1 YFD      0.038700
     32 HAN1        3.7510    1.2800    3.1570 hc        1 YFD      0.070200
     33 HAN2        3.7240   -0.4890    3.5530 hc        1 YFD      0.070200
     34 HAI         5.5700   -1.9310    2.7730 ha        1 YFD      0.117000
     35 HAG         8.1170    3.1420    2.6240 ho        1 YFD      0.478000
     36 HAB1        8.1910   -4.3690    2.8650 h1        1 YFD      0.030700
     37 HAB2        6.7980   -3.6070    1.9410 h1        1 YFD      0.030700
     38 HAB3        6.8350   -3.5230    3.7720 h1        1 YFD      0.030700
     39 HAK1       10.3070    0.6810    2.0700 hc        1 YFD      0.051700
     40 HAK2       10.2020   -1.1130    2.3290 hc        1 YFD      0.051700
     41 HAH        10.3120    1.0940    4.5210 ha        1 YFD      0.132000
     42 HAD1       10.5290   -2.6490    3.8970 hc        1 YFD      0.031033
     43 HAD2       11.8800   -2.8430    5.0960 hc        1 YFD      0.031033
     44 HAD3       12.2190   -2.1680    3.4490 hc        1 YFD      0.031033
     45 HAC1       11.3480   -1.1650    6.8940 hc        1 YFD      0.031033
     46 HAC2       11.6070    0.5610    6.4040 hc        1 YFD      0.031033
     47 HAC3       12.9020   -0.6730    6.1040 hc        1 YFD      0.031033
@<TRIPOS>BOND
     1    1    2 1   
     2    1   23 1   
     3    1   24 1   
     4    1   25 1   
     5    2    3 1   
     6    2   26 1   
     7    2   27 1   
     8    3    4 1   
     9    3   28 1   
    10    3   29 1   
    11    4    5 1   
    12    4   30 1   
    13    4   31 1   
    14    5    6 1   
    15    5   32 1   
    16    5   33 1   
    17    6    7 ar  
    18    6   13 ar  
    19    7    8 1   
    20    7   11 ar  
    21    8    9 1   
    22    8   10 1   
    23   11   12 1   
    24   11   17 ar  
    25   12   35 1   
    26   13   14 ar  
    27   13   34 1   
    28   14   15 1   
    29   14   17 ar  
    30   15   16 1   
    31   16   36 1   
    32   16   37 1   
    33   16   38 1   
    34   17   18 1   
    35   18   19 1   
    36   18   39 1   
    37   18   40 1   
    38   19   20 2   
    39   19   41 1   
    40   20   21 1   
    41   20   22 1   
    42   21   42 1   
    43   21   43 1   
    44   21   44 1   
    45   22   45 1   
    46   22   46 1   
    47   22   47 1   
@<TRIPOS>SUBSTRUCTURE
     1 YFD         1 TEMP              0 ****  ****    0 ROOT
