@<TRIPOS>MOLECULE
molecule
   48    49     1     0     0
SMALL
bcc


@<TRIPOS>ATOM
      1 CAB          0.0000     0.0000     0.0000 c3         1 YFE      -0.089400
      2 CAR          1.5080     0.0000     0.0000 c2         1 YFE       0.001600
      3 CAC          2.2620     0.0000     1.3050 c3         1 YFE      -0.089400
      4 CAG          2.1620     0.0010    -1.1340 c2         1 YFE      -0.528200
      5 CAN          1.4080     0.0010    -2.4390 c3         1 YFE      -0.025900
      6 CAX          1.8630     1.1650    -3.2820 ca         1 YFE      -0.188300
      7 CAW          2.9240     1.0120    -4.1610 ca         1 YFE       0.157100
      8 CAM          3.3490     2.0820    -4.9420 ca         1 YFE      -0.240000
      9 OAQ          3.5510    -0.1870    -4.2610 os         1 YFE      -0.321900
     10 CAA          4.6360    -0.2770    -5.1860 c3         1 YFE       0.133700
     11 CAU          1.2170     2.3850    -3.1810 ca         1 YFE       0.138100
     12 OAF          0.1760     2.5350    -2.3240 oh         1 YFE      -0.534100
     13 CAY          1.6440     3.4670    -3.9670 ca         1 YFE      -0.138600
     14 CAS          0.9640     4.7670    -3.8680 c          1 YFE       0.881200
     15 OAE         -0.0880     5.0410    -4.6660 o          1 YFE      -0.829300
     16 OAD          1.3490     5.5950    -3.0660 o          1 YFE      -0.829300
     17 CAV          2.7200     3.3020    -4.8470 ca         1 YFE      -0.013300
     18 CAP          3.1840     4.4590    -5.6940 c3         1 YFE      -0.028100
     19 CAO          4.1680     5.3140    -4.8930 c3         1 YFE      -0.041100
     20 CAT          4.6330     6.4700    -5.7400 ca         1 YFE      -0.064300
     21 CAK          3.9370     7.6640    -5.7210 ca         1 YFE      -0.122500
     22 CAI          4.3640     8.7260    -6.4980 ca         1 YFE      -0.137500
     23 CAH          5.4870     8.5930    -7.2930 ca         1 YFE      -0.149000
     24 CAJ          6.1830     7.3990    -7.3110 ca         1 YFE      -0.137500
     25 CAL          5.7590     6.3390    -6.5310 ca         1 YFE      -0.122500
     26 HAB1        -0.3610     0.9650    -0.3340 hc         1 YFE       0.043867
     27 HAB2        -0.3610    -0.1940     1.0030 hc         1 YFE       0.043867
     28 HAB3        -0.3610    -0.7720    -0.6690 hc         1 YFE       0.043867
     29 HAC1         1.9900     0.8770     1.8790 hc         1 YFE       0.043867
     30 HAC2         2.0110    -0.8920     1.8670 hc         1 YFE       0.043867
     31 HAC3         3.3270     0.0140     1.1070 hc         1 YFE       0.043867
     32 HAG          1.6970     0.8760    -1.5720 ha         1 YFE       0.389000
     33 HAN1         0.3460     0.0900    -2.2430 hc         1 YFE       0.063700
     34 HAN2         1.6010    -0.9250    -2.9680 hc         1 YFE       0.063700
     35 HAM          4.1810     1.9560    -5.6250 ha         1 YFE       0.121000
     36 HAA1         4.2830    -0.0370    -6.1820 h1         1 YFE       0.032367
     37 HAA2         5.0350    -1.2850    -5.1780 h1         1 YFE       0.032367
     38 HAA3         5.4140     0.4210    -4.9000 h1         1 YFE       0.032367
     39 HAF         -0.6040     2.7440    -2.8110 ho         1 YFE       0.443000
     40 HAP1         2.3310     5.0620    -5.9800 hc         1 YFE       0.058200
     41 HAP2         3.6750     4.0810    -6.5830 hc         1 YFE       0.058200
     42 HAO1         3.6780     5.6920    -4.0040 hc         1 YFE       0.066700
     43 HAO2         5.0210     4.7110    -4.6060 hc         1 YFE       0.066700
     44 HAK          3.0570     7.7690    -5.0980 ha         1 YFE       0.142000
     45 HAL          6.3040     5.4040    -6.5450 ha         1 YFE       0.142000
     46 HAI          3.8180     9.6610    -6.4830 ha         1 YFE       0.117000
     47 HAH          5.8200     9.4240    -7.9030 ha         1 YFE       0.112000
     48 HAJ          7.0650     7.2950    -7.9330 ha         1 YFE       0.117000
@<TRIPOS>BOND
     1     1     2 1
     2     2     3 1
     3     2     4 2
     4     4     5 1
     5     5     6 1
     6     6     7 ar
     7     6    11 ar
     8     7     8 ar
     9     7     9 1
    10     8    17 ar
    11     9    10 1
    12    11    12 1
    13    11    13 ar
    14    13    14 1
    15    13    17 ar
    16    14    15 1
    17    14    16 1
    18    17    18 1
    19    18    19 1
    20    19    20 1
    21    20    21 ar
    22    20    25 ar
    23    21    22 ar
    24    22    23 ar
    25    23    24 ar
    26    24    25 ar
    27     1    26 1
    28     1    27 1
    29     1    28 1
    30     3    29 1
    31     3    30 1
    32     3    31 1
    33     4    32 1
    34     5    33 1
    35     5    34 1
    36     8    35 1
    37    10    36 1
    38    10    37 1
    39    10    38 1
    40    12    39 1
    41    18    40 1
    42    18    41 1
    43    19    42 1
    44    19    43 1
    45    21    44 1
    46    25    45 1
    47    22    46 1
    48    23    47 1
    49    24    48 1
@<TRIPOS>SUBSTRUCTURE
     1 YFE         1 TEMP              0 ****  ****    0 ROOT
