@<TRIPOS>MOLECULE
YFE
   48    49     1     0     0
SMALL
bcc


@<TRIPOS>ATOM
      1 CAB         0.1730    0.4610    0.1970 c3        1 YFE     -0.054400
      2 CAR         1.5510   -0.0200   -0.0690 c2        1 YFE     -0.143400
      3 CAC         2.3890   -0.2510    1.1340 c3        1 YFE     -0.054400
      4 CAG         2.0300   -0.2250   -1.3040 c2        1 YFE     -0.142200
      5 CAN         1.2670   -0.0360   -2.5650 c3        1 YFE      0.023100
      6 CAX         1.7820    1.1110   -3.3610 ca        1 YFE     -0.167300
      7 CAW         2.9490    0.9890   -4.1390 ca        1 YFE      0.131100
      8 CAM         3.4230    2.0490   -4.9090 ca        1 YFE     -0.261000
      9 OAQ         3.5750   -0.2530   -4.0750 os        1 YFE     -0.340900
     10 CAA         4.6510   -0.4480   -4.9780 c3        1 YFE      0.120700
     11 CAU         1.1090    2.3500   -3.3830 ca        1 YFE      0.204100
     12 OAF        -0.0270    2.4120   -2.6190 oh        1 YFE     -0.547100
     13 CAY         1.5860    3.4480   -4.1380 ca        1 YFE     -0.218600
     14 CAS         0.8320    4.7650   -4.1070 c         1 YFE      0.918200
     15 OAE        -0.4350    4.7180   -4.0180 o         1 YFE     -0.834800
     16 OAD         1.4690    5.8530   -4.1500 o         1 YFE     -0.834800
     17 CAV         2.7410    3.2760   -4.9040 ca        1 YFE      0.006700
     18 CAP         3.2880    4.3760   -5.7530 c3        1 YFE     -0.026100
     19 CAO         4.3040    5.2050   -4.9810 c3        1 YFE     -0.037100
     20 CAT         4.6710    6.4420   -5.7220 ca        1 YFE     -0.059300
     21 CAK         3.7310    7.4790   -5.8240 ca        1 YFE     -0.129000
     22 CAI         4.0570    8.6500   -6.5030 ca        1 YFE     -0.144000
     23 CAH         5.3180    8.8010   -7.0830 ca        1 YFE     -0.153000
     24 CAJ         6.2550    7.7740   -6.9820 ca        1 YFE     -0.144000
     25 CAL         5.9330    6.5980   -6.3040 ca        1 YFE     -0.129000
     26 HAB1        0.0640    0.8040    1.2540 hc        1 YFE      0.035033
     27 HAB2       -0.0810    1.3160   -0.4830 hc        1 YFE      0.035033
     28 HAB3       -0.5660   -0.3590    0.0170 hc        1 YFE      0.035033
     29 HAC1        1.8800   -0.9640    1.8290 hc        1 YFE      0.035033
     30 HAC2        2.5490    0.7130    1.6790 hc        1 YFE      0.035033
     31 HAC3        3.3890   -0.6730    0.8660 hc        1 YFE      0.035033
     32 HAG         3.0740   -0.5510   -1.4570 ha        1 YFE      0.118000
     33 HAN1        0.1730    0.1170   -2.3540 hc        1 YFE      0.051700
     34 HAN2        1.3670   -0.9760   -3.1780 hc        1 YFE      0.051700
     35 HAM         4.3290    1.9460   -5.5190 ha        1 YFE      0.119000
     36 HAA1        4.3260   -0.2840   -6.0340 h1        1 YFE      0.031367
     37 HAA2        5.5050    0.2290   -4.7280 h1        1 YFE      0.031367
     38 HAA3        4.9420   -1.5170   -4.8180 h1        1 YFE      0.031367
     39 HAF        -0.5020    3.2460   -2.8140 ho        1 YFE      0.480000
     40 HAP1        2.4470    5.0500   -6.0780 hc        1 YFE      0.053700
     41 HAP2        3.7680    3.9470   -6.6710 hc        1 YFE      0.053700
     42 HAO1        5.2140    4.5880   -4.7660 hc        1 YFE      0.062200
     43 HAO2        3.8300    5.4990   -4.0000 hc        1 YFE      0.062200
     44 HAK         2.7370    7.3400   -5.3530 ha        1 YFE      0.158000
     45 HAL         6.6750    5.7900   -6.2260 ha        1 YFE      0.158000
     46 HAI         3.3170    9.4600   -6.5810 ha        1 YFE      0.116000
     47 HAH         5.5720    9.7270   -7.6170 ha        1 YFE      0.111000
     48 HAJ         7.2480    7.8890   -7.4360 ha        1 YFE      0.116000
@<TRIPOS>BOND
     1    1    2 1   
     2    1   26 1   
     3    1   27 1   
     4    1   28 1   
     5    2    3 1   
     6    2    4 2   
     7    3   29 1   
     8    3   30 1   
     9    3   31 1   
    10    4    5 1   
    11    4   32 1   
    12    5    6 1   
    13    5   33 1   
    14    5   34 1   
    15    6    7 ar  
    16    6   11 ar  
    17    7    8 ar  
    18    7    9 1   
    19    8   17 ar  
    20    8   35 1   
    21    9   10 1   
    22   10   36 1   
    23   10   37 1   
    24   10   38 1   
    25   11   12 1   
    26   11   13 ar  
    27   12   39 1   
    28   13   14 1   
    29   13   17 ar  
    30   14   15 1   
    31   14   16 1   
    32   17   18 1   
    33   18   19 1   
    34   18   40 1   
    35   18   41 1   
    36   19   20 1   
    37   19   42 1   
    38   19   43 1   
    39   20   21 ar  
    40   20   25 ar  
    41   21   22 ar  
    42   21   44 1   
    43   22   23 ar  
    44   22   46 1   
    45   23   24 ar  
    46   23   47 1   
    47   24   25 ar  
    48   24   48 1   
    49   25   45 1   
@<TRIPOS>SUBSTRUCTURE
     1 YFE         1 TEMP              0 ****  ****    0 ROOT
