@<TRIPOS>MOLECULE
molecule
   43    43     1     0     0
SMALL
bcc


@<TRIPOS>ATOM
      1 F            0.0000     0.0000     0.0000 f          1 YFF      -0.215300
      2 O1          12.3400    -1.0180     1.2610 o          1 YFF      -0.811800
      3 O2          11.9280    -0.9460     3.4400 o          1 YFF      -0.811800
      4 NAA          7.4810     1.2040     6.6510 nz         1 YFF      -0.703400
      5 NAC          1.0600    -0.0000     2.4040 n2         1 YFF      -0.832100
      6 OAE          8.5040    -0.7480     6.3870 o          1 YFF      -0.365100
      7 OAF          9.7130    -0.3020     3.3200 o          1 YFF      -0.511100
      8 CAH         10.4340    -4.9360     1.6490 ca         1 YFF      -0.110000
      9 CAI         11.2830    -3.8490     1.7280 ca         1 YFF      -0.107000
     10 CAJ          9.1350    -4.8470     2.1170 ca         1 YFF      -0.164000
     11 CAK         10.8310    -2.6530     2.2820 ca         1 YFF      -0.009600
     12 CAL          8.6700    -3.6680     2.6680 ca         1 YFF      -0.126000
     13 CAM          5.2660     0.0000     3.0530 c3         1 YFF      -0.083400
     14 CAN          3.7350     0.0000     3.0540 c3         1 YFF       0.139800
     15 CAO          5.7750     0.0010     4.4960 c3         1 YFF      -0.101400
     16 CAP          1.3990     0.0000     0.0000 c3         1 YFF       0.157600
     17 NAR          3.2470     0.0010     1.6720 nu         1 YFF      -0.864200
     18 NAS          7.7940    -1.2510     3.9120 ns         1 YFF      -0.581900
     19 CAU          7.8070     0.1240     5.9130 c          1 YFF       0.446100
     20 CAV          1.9010     0.0000     1.4210 c2         1 YFF       0.597200
     21 CAW          9.0160    -1.2980     3.3470 c          1 YFF       0.663700
     22 CAX          9.5090    -2.5620     2.7570 ca         1 YFF      -0.155600
     23 CAZ          7.3050     0.0010     4.4960 c3         1 YFF       0.053700
     24 HNAA         6.6420     1.0160     7.1640 hn         1 YFF       0.474467
     25 HNAB         8.2230     1.4080     7.2900 hn         1 YFF       0.474467
     26 HNAC         1.3930    -0.0000     3.3470 hn         1 YFF       0.392400
     27 HAH         10.7890    -5.8650     1.2180 ha         1 YFF       0.123000
     28 HAI         12.2990    -3.9260     1.3600 ha         1 YFF       0.159000
     29 HAJ          8.4790    -5.7060     2.0500 ha         1 YFF       0.117000
     30 HAL          7.6520    -3.6060     3.0320 ha         1 YFF       0.090000
     31 HAM          5.6270     0.8850     2.5430 hc         1 YFF       0.077200
     32 HAMA         5.6270    -0.8840     2.5430 hc         1 YFF       0.077200
     33 HAN          3.3740     0.8840     3.5650 h1         1 YFF       0.037200
     34 HANA         3.3740    -0.8850     3.5640 h1         1 YFF       0.037200
     35 HAO          5.4140     0.8850     5.0070 hc         1 YFF       0.039200
     36 HAOA         5.4140    -0.8840     5.0070 hc         1 YFF       0.039200
     37 HAP          1.7600     0.8920    -0.4970 h1         1 YFF       0.064200
     38 HAPA         1.7600    -0.8770    -0.5240 h1         1 YFF       0.064200
     39 HNAS         7.2360    -2.0790     3.9660 hn         1 YFF       0.330500
     40 HAZ          7.6660     0.8380     3.9110 h1         1 YFF       0.128700
     41 HNAR         3.9830     0.6550     1.4960 hn         1 YFF       0.416800
     42 HAA3         6.8460     1.7810     6.1360 hn         1 YFF       0.474467
     43 C1          11.7350    -1.4860     2.3700 c          1 YFF       0.880200
@<TRIPOS>BOND
     1    43     2 1
     2    43     3 1
     3    43    11 1
     4     4    19 1
     5     5    20 2
     6     6    19 2
     7     7    21 2
     8     8     9 ar
     9     8    10 ar
    10     9    11 ar
    11    10    12 ar
    12    11    22 ar
    13    12    22 ar
    14    13    14 1
    15    13    15 1
    16    14    17 1
    17    15    23 1
    18    16    20 1
    19    17    20 1
    20    18    21 1
    21    18    23 1
    22    19    23 1
    23    21    22 1
    24     4    24 1
    25     4    25 1
    26     5    26 1
    27     8    27 1
    28     9    28 1
    29    10    29 1
    30    12    30 1
    31    13    31 1
    32    13    32 1
    33    14    33 1
    34    14    34 1
    35    15    35 1
    36    15    36 1
    37    16    37 1
    38    16    38 1
    39    18    39 1
    40    23    40 1
    41    16     1 1
    42    17    41 1
    43    42     4 1
@<TRIPOS>SUBSTRUCTURE
     1 YFF         1 TEMP              0 ****  ****    0 ROOT
