@<TRIPOS>MOLECULE
YFF
   43    43     1     0     0
SMALL
bcc


@<TRIPOS>ATOM
      1 F            0.0000     0.0000     0.0000 f          1 YFF      -0.219300
      2 O1          12.3400    -1.0180     1.2610 o          1 YFF      -0.864800
      3 O2          11.9280    -0.9460     3.4400 o          1 YFF      -0.864800
      4 NAA          7.4810     1.2040     6.6510 nz         1 YFF       0.127600
      5 NAC          1.0600    -0.0000     2.4040 n2         1 YFF      -0.727100
      6 OAE          8.5040    -0.7480     6.3870 o          1 YFF      -0.377100
      7 OAF          9.7130    -0.3020     3.3200 o          1 YFF      -0.542100
      8 CAH         10.4340    -4.9360     1.6490 ca         1 YFF      -0.087000
      9 CAI         11.2830    -3.8490     1.7280 ca         1 YFF      -0.077000
     10 CAJ          9.1350    -4.8470     2.1170 ca         1 YFF      -0.141000
     11 CAK         10.8310    -2.6530     2.2820 ca         1 YFF       0.001400
     12 CAL          8.6700    -3.6680     2.6680 ca         1 YFF      -0.109000
     13 CAM          5.2660     0.0000     3.0530 c3         1 YFF      -0.031400
     14 CAN          3.7350     0.0000     3.0540 c3         1 YFF       0.117800
     15 CAO          5.7750     0.0010     4.4960 c3         1 YFF      -0.033400
     16 CAP          1.3990     0.0000     0.0000 c3         1 YFF       0.152600
     17 NAR          3.2470     0.0010     1.6720 nu         1 YFF      -0.486200
     18 NAS          7.7940    -1.2510     3.9120 ns         1 YFF      -0.222900
     19 CAU          7.8070     0.1240     5.9130 c          1 YFF       0.286100
     20 CAV          1.9010     0.0000     1.4210 c2         1 YFF       0.426200
     21 CAW          9.0160    -1.2980     3.3470 c          1 YFF       0.590700
     22 CAX          9.5090    -2.5620     2.7570 ca         1 YFF      -0.164600
     23 CAZ          7.3050     0.0010     4.4960 c3         1 YFF      -0.032300
     24 HNAA         8.2230     1.4080     7.2900 hn         1 YFF       0.259800
     25 HNAB         7.3340     1.9890     6.0480 hn         1 YFF       0.259800
     26 HNAC         0.0760    -0.0000     2.2200 hn         1 YFF       0.348400
     27 HAH         10.7890    -5.8650     1.2180 ha         1 YFF       0.094000
     28 HAI         12.2990    -3.9260     1.3600 ha         1 YFF       0.127000
     29 HAJ          8.4790    -5.7060     2.0500 ha         1 YFF       0.093000
     30 HAL          7.6520    -3.6060     3.0320 ha         1 YFF       0.074000
     31 HAM          5.6270     0.8850     2.5430 hc         1 YFF       0.038200
     32 HAMA         5.6270    -0.8840     2.5430 hc         1 YFF       0.038200
     33 HAN          3.3740    -0.8850     3.5640 h1         1 YFF       0.020700
     34 HANA         3.3740     0.8840     3.5650 h1         1 YFF       0.020700
     35 HAO          5.4140    -0.8840     5.0070 hc         1 YFF       0.012700
     36 HAOA         5.4140     0.8850     5.0070 hc         1 YFF       0.012700
     37 HAP          1.7600     0.8770    -0.5240 h1         1 YFF       0.029700
     38 HAPA         1.7600    -0.8920    -0.4970 h1         1 YFF       0.029700
     39 HNAS         7.2340    -2.0780     3.9630 hn         1 YFF       0.200500
     40 HAZ          7.6660     0.8380     3.9110 h1         1 YFF       0.091700
     41 HNAR         3.9830     0.6560     1.4960 hn         1 YFF       0.295800
     42 HAA3         7.0460     0.9070     7.5020 hn         1 YFF       0.259800
     43 C1          11.7350    -1.4860     2.3700 c          1 YFF       0.970200
@<TRIPOS>BOND
     1     1    16 1   
     2     2    43 1   
     3     3    43 1   
     4     4    19 1   
     5     4    24 1   
     6     4    25 1   
     7     4    42 1   
     8     5    20 2   
     9     5    26 1   
    10     6    19 2   
    11     7    21 2   
    12     8     9 ar  
    13     8    10 ar  
    14     8    27 1   
    15     9    11 ar  
    16     9    28 1   
    17    10    12 ar  
    18    10    29 1   
    19    11    22 ar  
    20    11    43 1   
    21    12    22 ar  
    22    12    30 1   
    23    13    14 1   
    24    13    15 1   
    25    13    31 1   
    26    13    32 1   
    27    14    17 1   
    28    14    33 1   
    29    14    34 1   
    30    15    23 1   
    31    15    35 1   
    32    15    36 1   
    33    16    20 1   
    34    16    37 1   
    35    16    38 1   
    36    17    20 1   
    37    17    41 1   
    38    18    21 1   
    39    18    23 1   
    40    18    39 1   
    41    19    23 1   
    42    21    22 1   
    43    23    40 1   
@<TRIPOS>SUBSTRUCTURE
     1 YFF         1 TEMP              0 ****  ****    0 ROOT
