@<TRIPOS>MOLECULE
molecule
   38    41     1     0     0
SMALL
bcc


@<TRIPOS>ATOM
      1 CAK          0.0000     0.0000     0.0000 ca         1 YGL      -0.098000
      2 CAG          1.3790     0.0000     0.0000 ca         1 YGL      -0.125000
      3 CAD          2.0740     0.0000     1.1970 ca         1 YGL      -0.105000
      4 CAH          1.3920    -0.0000     2.4000 ca         1 YGL      -0.125000
      5 CAL          0.0120    -0.0010     2.4140 ca         1 YGL      -0.098000
      6 CAR         -0.6950     0.0000     1.2100 ca         1 YGL      -0.047000
      7 CAT         -2.1740     0.0000     1.2170 cc         1 YGL      -0.014000
      8 CAW         -3.0580     1.0760     0.7550 cc         1 YGL      -0.188600
      9 CAU         -2.8430     2.3560     0.2000 c          1 YGL       0.730100
     10 OAB         -1.7130     2.7750     0.0120 o          1 YGL      -0.554500
     11 NAN         -3.9230     3.1040    -0.1200 ns         1 YGL      -0.469400
     12 CAP         -5.1790     2.6200     0.0950 cc         1 YGL       0.432800
     13 NAA         -6.2570     3.4000    -0.2380 nz         1 YGL      -0.723600
     14 NAM         -5.3900     1.4300     0.6120 nd         1 YGL      -0.558100
     15 CAV         -4.3710     0.6290     0.9550 cd         1 YGL       0.124100
     16 NAO         -4.3130    -0.6230     1.4960 na         1 YGL      -0.118100
     17 CAS         -3.0020    -1.0150     1.6550 cd         1 YGL       0.042700
     18 CAQ         -2.5540    -2.3090     2.2060 ca         1 YGL      -0.072000
     19 CAI         -3.1240    -2.8070     3.3800 ca         1 YGL      -0.095000
     20 CAE         -2.7010    -4.0160     3.8900 ca         1 YGL      -0.122500
     21 CAC         -1.7130    -4.7360     3.2410 ca         1 YGL      -0.094000
     22 CAF         -1.1430    -4.2500     2.0770 ca         1 YGL      -0.122500
     23 CAJ         -1.5610    -3.0440     1.5530 ca         1 YGL      -0.095000
     24 HAK         -0.5430     0.0000    -0.9380 ha         1 YGL       0.133500
     25 HAG          1.9200     0.0000    -0.9390 ha         1 YGL       0.141000
     26 HAD          3.1580     0.0000     1.1920 ha         1 YGL       0.141000
     27 HAH          1.9410    -0.0010     3.3340 ha         1 YGL       0.141000
     28 HAL         -0.5220    -0.0010     3.3570 ha         1 YGL       0.133500
     29 HAN         -3.8000     4.0160    -0.5150 hn         1 YGL       0.343500
     30 HAA1        -6.2300     3.6070    -1.2160 hn         1 YGL       0.474467
     31 HAA2        -7.1030     2.9090    -0.0240 hn         1 YGL       0.474467
     32 HAO         -5.1090    -1.1790     1.7380 hn         1 YGL       0.324700
     33 HAI         -3.8970    -2.2440     3.8890 ha         1 YGL       0.138500
     34 HAJ         -1.1150    -2.6640     0.6420 ha         1 YGL       0.138500
     35 HAE         -3.1420    -4.4030     4.8000 ha         1 YGL       0.147500
     36 HAC         -1.3820    -5.6850     3.6470 ha         1 YGL       0.147000
     37 HAF         -0.3720    -4.8200     1.5740 ha         1 YGL       0.147500
     38 HAA3        -6.2400     4.2410     0.3050 hn         1 YGL       0.474467
@<TRIPOS>BOND
     1     1     2 ar
     2     1     6 ar
     3     2     3 ar
     4     3     4 ar
     5     4     5 ar
     6     5     6 ar
     7     6     7 1
     8     7     8 1
     9     7    17 2
    10     8     9 1
    11     8    15 2
    12     9    10 2
    13     9    11 1
    14    11    12 1
    15    12    13 1
    16    12    14 2
    17    14    15 1
    18    15    16 1
    19    16    17 1
    20    17    18 1
    21    18    19 ar
    22    18    23 ar
    23    19    20 ar
    24    20    21 ar
    25    21    22 ar
    26    22    23 ar
    27     1    24 1
    28     2    25 1
    29     3    26 1
    30     4    27 1
    31     5    28 1
    32    11    29 1
    33    13    30 1
    34    13    31 1
    35    16    32 1
    36    19    33 1
    37    23    34 1
    38    20    35 1
    39    21    36 1
    40    22    37 1
    41    38    13 1
@<TRIPOS>SUBSTRUCTURE
     1 YGL         1 TEMP              0 ****  ****    0 ROOT
