@<TRIPOS>MOLECULE
molecule
   54    57     1     0     0
SMALL
bcc


@<TRIPOS>ATOM
      1 C2           0.0000     0.0000     0.0000 cc         1 YGP       0.417800
      2 N2          -0.6660     0.0010    -1.1990 nz         1 YGP      -0.719600
      3 C4          -0.0880     0.0110     2.3080 cc         1 YGP       0.009800
      4 C5           1.3100     0.0120     2.3750 cd         1 YGP       0.310800
      5 C6           2.0460     0.0000     1.1670 c          1 YGP       0.626000
      6 O6           3.2650     0.0000     1.1770 o          1 YGP      -0.540500
      7 N1           1.3630     0.0000     0.0000 ns         1 YGP      -0.472400
      8 N3          -0.6950     0.0060     1.1160 nd         1 YGP      -0.522100
      9 N7           1.6500     0.0180     3.6870 nd         1 YGP      -0.627000
     10 C8           0.5700     0.0220     4.4120 cc         1 YGP       0.529400
     11 N9          -0.5290     0.0230     3.6040 na         1 YGP      -0.148900
     12 C1'         -1.9270     0.0280     4.0430 c3         1 YGP       0.226800
     13 O4'         -2.0290     0.5390     5.3900 os         1 YGP      -0.378600
     14 C2'         -2.4710    -1.4150     4.1230 c3         1 YGP       0.081100
     15 O2'         -3.2160    -1.7360     2.9470 oh         1 YGP      -0.578800
     16 C3'         -3.3910    -1.4020     5.3640 c3         1 YGP       0.098100
     17 O3'         -4.7360    -1.7160     4.9930 oh         1 YGP      -0.571800
     18 C4'         -3.2950     0.0520     5.8860 c3         1 YGP       0.120100
     19 C5'         -3.3100     0.0710     7.4170 c3         1 YGP       0.239400
     20 O5'         -3.2640     1.4240     7.8760 os         1 YGP      -0.590200
     21 PBG         -3.2660     1.8200     9.4360 p5         1 YGP       1.325800
     22 OAI         -1.9160     1.2790    10.1280 o          1 YGP      -0.798000
     23 OAF         -4.4390     1.2080    10.1000 o          1 YGP      -0.798000
     24 OAR         -3.3400     3.4210     9.5830 os         1 YGP      -0.460500
     25 CAW         -3.4670     3.8520    10.8610 cd         1 YGP       0.260100
     26 CAK         -2.4280     3.6500    11.7910 cd         1 YGP      -0.231000
     27 CAT         -2.5700     4.0850    13.0620 cc         1 YGP       0.027400
     28 CAA         -1.4550     3.8660    14.0520 c3         1 YGP      -0.052900
     29 NAO         -3.7050     4.7190    13.4580 ns         1 YGP      -0.415100
     30 CAX         -4.7190     4.9310    12.5990 c          1 YGP       0.702700
     31 OAD         -5.7300     5.5030    12.9780 o          1 YGP      -0.697500
     32 CAV         -4.6160     4.5020    11.2710 cc         1 YGP      -0.258400
     33 CAB         -5.7480     4.7360    10.3030 c3         1 YGP      -0.012900
     34 H1          -0.2290     0.6490    -1.8230 hn         1 YGP       0.473133
     35 H2          -0.6370    -0.9170    -1.5980 hn         1 YGP       0.473133
     36 H3           1.8610     0.0000    -0.8680 hn         1 YGP       0.341500
     37 H4           0.5470     0.0230     5.4950 h5         1 YGP       0.128100
     38 H5          -2.5360     0.6210     3.3700 h2         1 YGP       0.105700
     39 H6          -1.6570    -2.1160     4.2660 h1         1 YGP       0.051700
     40 H7          -3.0220    -2.6200     2.6830 ho         1 YGP       0.404000
     41 H8          -3.0260    -2.0960     6.1110 h1         1 YGP       0.065700
     42 H9          -5.0050    -2.5070     5.4280 ho         1 YGP       0.411000
     43 H10         -4.1080     0.6470     5.4880 h1         1 YGP       0.091700
     44 H11         -4.2170    -0.4020     7.7750 h1         1 YGP       0.051200
     45 H12         -2.4490    -0.4680     7.7930 h1         1 YGP       0.051200
     46 H14         -1.4850     3.2260    11.4660 ha         1 YGP       0.188000
     47 H16         -1.1550     2.8250    14.0330 hc         1 YGP       0.049367
     48 H17         -0.6100     4.4900    13.7880 hc         1 YGP       0.049367
     49 H18         -1.7990     4.1250    15.0460 hc         1 YGP       0.049367
     50 H19         -6.2670     5.6490    10.5680 hc         1 YGP       0.041367
     51 H20         -6.4380     3.9020    10.3470 hc         1 YGP       0.041367
     52 H21         -5.3520     4.8240     9.2990 hc         1 YGP       0.041367
     53 H15         -3.7880     5.0330    14.4050 hn         1 YGP       0.320500
     54 H23         -1.6190     0.2700    -1.0520 hn         1 YGP       0.473133
@<TRIPOS>BOND
     1    33    32 1
     2    31    30 2
     3    32    30 1
     4    32    25 2
     5    30    29 1
     6    23    21 1
     7    24    25 1
     8    24    21 1
     9    25    26 1
    10    19    18 1
    11    19    20 1
    12    21    20 1
    13    21    22 1
    14    29    27 1
    15    18    13 1
    16    18    16 1
    17    26    27 2
    18    17    16 1
    19    27    28 1
    20    13    12 1
    21    16    14 1
    22    15    14 1
    23    14    12 1
    24    12    11 1
    25    10    11 1
    26    10     9 2
    27    11     3 1
    28     9     4 1
    29     3     4 2
    30     3     8 1
    31     4     5 1
    32     8     1 2
    33     5     6 2
    34     5     7 1
    35     1     7 1
    36     1     2 1
    37     2    34 1
    38     2    35 1
    39     7    36 1
    40    10    37 1
    41    12    38 1
    42    14    39 1
    43    15    40 1
    44    16    41 1
    45    17    42 1
    46    18    43 1
    47    19    44 1
    48    19    45 1
    49    26    46 1
    50    28    47 1
    51    28    48 1
    52    28    49 1
    53    33    50 1
    54    33    51 1
    55    33    52 1
    56    29    53 1
    57    54     2 1
@<TRIPOS>SUBSTRUCTURE
     1 YGP         1 TEMP              0 ****  ****    0 ROOT
