@<TRIPOS>MOLECULE
YGP
   54    57     1     0     0
SMALL
bcc


@<TRIPOS>ATOM
      1 C2           0.0000     0.0000     0.0000 cc         1 YGP      -0.063200
      2 N2          -0.6660     0.0010    -1.1990 nz         1 YGP       0.235400
      3 C4          -0.0880     0.0110     2.3080 cd         1 YGP      -0.251200
      4 C5           1.3100     0.0120     2.3750 cc         1 YGP       0.278800
      5 C6           2.0460     0.0000     1.1670 c          1 YGP       0.527000
      6 O6           3.2650     0.0000     1.1770 o          1 YGP      -0.582500
      7 N1           1.3630     0.0000     0.0000 ns         1 YGP      -0.011400
      8 N3          -0.6950     0.0060     1.1160 nd         1 YGP      -0.304100
      9 N7           1.6500     0.0180     3.6870 nc         1 YGP      -0.518000
     10 C8           0.5700     0.0220     4.4120 cd         1 YGP       0.345400
     11 N9          -0.5290     0.0230     3.6040 na         1 YGP       0.352100
     12 C1'         -1.9270     0.0280     4.0430 c3         1 YGP       0.106800
     13 O4'         -2.0290     0.5390     5.3900 os         1 YGP      -0.362600
     14 C2'         -2.4710    -1.4150     4.1230 c3         1 YGP       0.121100
     15 O2'         -3.2160    -1.7360     2.9470 oh         1 YGP      -0.558800
     16 C3'         -3.3910    -1.4020     5.3640 c3         1 YGP       0.138100
     17 O3'         -4.7360    -1.7160     4.9930 oh         1 YGP      -0.553800
     18 C4'         -3.2950     0.0520     5.8860 c3         1 YGP       0.147100
     19 C5'         -3.3100     0.0710     7.4170 c3         1 YGP       0.318400
     20 O5'         -3.2640     1.4240     7.8760 os         1 YGP      -0.501200
     21 PBG         -3.2660     1.8200     9.4360 p5         1 YGP       0.924800
     22 OAI         -1.9160     1.2790    10.1280 o          1 YGP      -0.647500
     23 OAF         -4.4390     1.2080    10.1000 o          1 YGP      -0.647500
     24 OAR         -3.3400     3.4210     9.5830 os         1 YGP      -0.369500
     25 CAW         -3.4670     3.8520    10.8610 cc         1 YGP       0.321100
     26 CAK         -2.4280     3.6500    11.7910 cc         1 YGP      -0.209000
     27 CAT         -2.5700     4.0850    13.0620 cd         1 YGP      -0.163600
     28 CAA         -1.4550     3.8660    14.0520 c3         1 YGP       0.069100
     29 NAO         -3.7050     4.7190    13.4580 ns         1 YGP       0.067900
     30 CAX         -4.7190     4.9310    12.5990 c          1 YGP       0.604700
     31 OAD         -5.7300     5.5030    12.9780 o          1 YGP      -0.759500
     32 CAV         -4.6160     4.5020    11.2710 cd         1 YGP      -0.319400
     33 CAB         -5.7480     4.7360    10.3030 c3         1 YGP       0.105100
     34 H1          -0.2290     0.6490    -1.8230 hn         1 YGP       0.209467
     35 H2          -0.6370    -0.9170    -1.5980 hn         1 YGP       0.209467
     36 H3           1.8610     0.0000    -0.8680 hn         1 YGP       0.181500
     37 H4           0.5470     0.0230     5.4950 h5         1 YGP       0.072100
     38 H5          -2.5360     0.6210     3.3700 h2         1 YGP       0.064700
     39 H6          -1.6570    -2.1160     4.2660 h1         1 YGP       0.011700
     40 H7          -3.0220    -2.6200     2.6830 ho         1 YGP       0.389000
     41 H8          -3.0260    -2.0960     6.1110 h1         1 YGP       0.028700
     42 H9          -5.0050    -2.5070     5.4280 ho         1 YGP       0.395000
     43 H10         -4.1080     0.6470     5.4880 h1         1 YGP       0.049700
     44 H11         -4.2170    -0.4020     7.7750 h1         1 YGP      -0.001300
     45 H12         -2.4490    -0.4680     7.7930 h1         1 YGP      -0.001300
     46 H14         -1.4850     3.2260    11.4660 ha         1 YGP       0.163000
     47 H16         -1.1550     2.8250    14.0330 hc         1 YGP       0.007367
     48 H17         -0.6100     4.4900    13.7880 hc         1 YGP       0.007367
     49 H18         -1.7990     4.1250    15.0460 hc         1 YGP       0.007367
     50 H19         -6.2670     5.6490    10.5680 hc         1 YGP       0.002033
     51 H20         -6.4380     3.9020    10.3470 hc         1 YGP       0.002033
     52 H21         -5.3520     4.8240     9.2990 hc         1 YGP       0.002033
     53 H15         -3.7880     5.0330    14.4050 hn         1 YGP       0.154500
     54 H23         -1.6190     0.2700    -1.0520 hn         1 YGP       0.209467
@<TRIPOS>BOND
     1     1     2 1   
     2     1     7 1   
     3     1     8 2   
     4     2    34 1   
     5     2    35 1   
     6     2    54 1   
     7     3     4 2   
     8     3     8 1   
     9     3    11 1   
    10     4     5 1   
    11     4     9 1   
    12     5     6 2   
    13     5     7 1   
    14     7    36 1   
    15     9    10 2   
    16    10    11 1   
    17    10    37 1   
    18    11    12 1   
    19    12    13 1   
    20    12    14 1   
    21    12    38 1   
    22    13    18 1   
    23    14    15 1   
    24    14    16 1   
    25    14    39 1   
    26    15    40 1   
    27    16    17 1   
    28    16    18 1   
    29    16    41 1   
    30    17    42 1   
    31    18    19 1   
    32    18    43 1   
    33    19    20 1   
    34    19    44 1   
    35    19    45 1   
    36    20    21 1   
    37    21    22 1   
    38    21    23 1   
    39    21    24 1   
    40    24    25 1   
    41    25    26 1   
    42    25    32 2   
    43    26    27 2   
    44    26    46 1   
    45    27    28 1   
    46    27    29 1   
    47    28    47 1   
    48    28    48 1   
    49    28    49 1   
    50    29    30 1   
    51    29    53 1   
    52    30    31 2   
    53    30    32 1   
    54    32    33 1   
    55    33    50 1   
    56    33    51 1   
    57    33    52 1   
@<TRIPOS>SUBSTRUCTURE
     1 YGP         1 TEMP              0 ****  ****    0 ROOT
