@<TRIPOS>MOLECULE
YH1
   33    35     1     0     0
SMALL
bcc


@<TRIPOS>ATOM
      1 N01          0.0000     0.0000     0.0000 ns         1 YH1       0.001600
      2 C02          1.3630     0.0000     0.0000 cc         1 YH1      -0.036200
      3 N03          2.0570     0.0000     1.1160 nd         1 YH1      -0.335100
      4 C04          1.4490    -0.0000     2.3080 cd         1 YH1      -0.258200
      5 C05          0.0530    -0.0000     2.3740 cc         1 YH1       0.302800
      6 C06         -0.6810     0.0000     1.1670 c          1 YH1       0.520000
      7 O07         -1.9010     0.0060     1.1780 o          1 YH1      -0.571500
      8 N08          2.0300     0.0000    -1.2010 nz         1 YH1       0.228400
      9 N09          1.8960     0.0000     3.6060 na         1 YH1       0.338100
     10 C10          0.7940     0.0000     4.4200 cd         1 YH1       0.382800
     11 N11         -0.2920     0.0010     3.6880 nc         1 YH1      -0.541000
     12 S12          0.8340    -0.0000     6.1820 ss         1 YH1      -0.276400
     13 C13         -0.9420    -0.0000     6.5350 c3         1 YH1      -0.005300
     14 C14         -1.1570    -0.0010     8.0260 c          1 YH1       0.647700
     15 C15         -2.5230    -0.0010     8.5730 ca         1 YH1      -0.201600
     16 O16         -0.2050    -0.0020     8.7760 o          1 YH1      -0.535100
     17 C17         -2.7270    -0.0010     9.9570 ca         1 YH1      -0.044500
     18 C18         -4.0100    -0.0010    10.4610 ca         1 YH1      -0.110500
     19 C19         -5.0960     0.0010     9.6010 ca         1 YH1      -0.052000
     20 C20         -4.9020     0.0010     8.2310 ca         1 YH1      -0.110500
     21 C21         -3.6250     0.0060     7.7120 ca         1 YH1      -0.044500
     22 H1          -0.4980     0.0000    -0.8680 hn         1 YH1       0.189500
     23 H2           1.7790     0.8170    -1.7220 hn         1 YH1       0.215133
     24 H3           1.7790    -0.8170    -1.7220 hn         1 YH1       0.215133
     25 H4           2.8510    -0.0000     3.9040 hn         1 YH1       0.150700
     26 H6          -1.3960    -0.8850     6.1040 h1         1 YH1       0.075700
     27 H7          -1.3960     0.8850     6.1050 h1         1 YH1       0.075700
     28 H8          -1.8790    -0.0020    10.6310 ha         1 YH1       0.114500
     29 H9          -4.1700    -0.0010    11.5320 ha         1 YH1       0.113000
     30 H10         -6.1020    -0.0010    10.0030 ha         1 YH1       0.109000
     31 H11         -5.7560     0.0040     7.5650 ha         1 YH1       0.113000
     32 H12         -3.4750     0.0070     6.6390 ha         1 YH1       0.114500
     33 H083         3.0160     0.0000    -1.0350 hn         1 YH1       0.215133
@<TRIPOS>BOND
     1     1     2 1   
     2     1     6 1   
     3     1    22 1   
     4     2     3 2   
     5     2     8 1   
     6     3     4 1   
     7     4     5 2   
     8     4     9 1   
     9     5     6 1   
    10     5    11 1   
    11     6     7 2   
    12     8    23 1   
    13     8    24 1   
    14     8    33 1   
    15     9    10 1   
    16     9    25 1   
    17    10    11 2   
    18    10    12 1   
    19    12    13 1   
    20    13    14 1   
    21    13    26 1   
    22    13    27 1   
    23    14    15 1   
    24    14    16 2   
    25    15    17 ar  
    26    15    21 ar  
    27    17    18 ar  
    28    17    28 1   
    29    18    19 ar  
    30    18    29 1   
    31    19    20 ar  
    32    19    30 1   
    33    20    21 ar  
    34    20    31 1   
    35    21    32 1   
@<TRIPOS>SUBSTRUCTURE
     1 YH1         1 TEMP              0 ****  ****    0 ROOT
