@<TRIPOS>MOLECULE
molecule
   33    35     1     0     0
SMALL
bcc


@<TRIPOS>ATOM
      1 N01          0.0000     0.0000     0.0000 ns         1 YH1      -0.465400
      2 C02          1.3630     0.0000     0.0000 cc         1 YH1       0.433800
      3 N03          2.0570     0.0000     1.1160 nd         1 YH1      -0.545100
      4 C04          1.4490    -0.0000     2.3080 cd         1 YH1       0.016800
      5 C05          0.0530    -0.0000     2.3740 cc         1 YH1       0.329800
      6 C06         -0.6810     0.0000     1.1670 c          1 YH1       0.622000
      7 O07         -1.9010     0.0060     1.1780 o          1 YH1      -0.533500
      8 N08          2.0300     0.0000    -1.2010 nz         1 YH1      -0.722600
      9 N09          1.8960     0.0000     3.6060 na         1 YH1      -0.256900
     10 C10          0.7940     0.0000     4.4200 cd         1 YH1       0.582800
     11 N11         -0.2920     0.0010     3.6880 nc         1 YH1      -0.646000
     12 S12          0.8340    -0.0000     6.1820 ss         1 YH1      -0.139400
     13 C13         -0.9420    -0.0000     6.5350 c3         1 YH1      -0.120300
     14 C14         -1.1570    -0.0010     8.0260 c          1 YH1       0.597700
     15 C15         -2.5230    -0.0010     8.5730 ca         1 YH1      -0.187600
     16 O16         -0.2050    -0.0020     8.7760 o          1 YH1      -0.513100
     17 C17         -2.7270    -0.0010     9.9570 ca         1 YH1      -0.073500
     18 C18         -4.0100    -0.0010    10.4610 ca         1 YH1      -0.137500
     19 C19         -5.0960     0.0010     9.6010 ca         1 YH1      -0.084000
     20 C20         -4.9020     0.0010     8.2310 ca         1 YH1      -0.137500
     21 C21         -3.6250     0.0060     7.7120 ca         1 YH1      -0.073500
     22 H1          -0.4980     0.0000    -0.8680 hn         1 YH1       0.350500
     23 H2           1.7790     0.8170    -1.7220 hn         1 YH1       0.476467
     24 H3           1.7790    -0.8170    -1.7220 hn         1 YH1       0.476467
     25 H4           2.8510    -0.0000     3.9040 hn         1 YH1       0.339700
     26 H6          -1.3960    -0.8850     6.1040 h1         1 YH1       0.109700
     27 H7          -1.3960     0.8850     6.1050 h1         1 YH1       0.109700
     28 H8          -1.8790    -0.0020    10.6310 ha         1 YH1       0.144000
     29 H9          -4.1700    -0.0010    11.5320 ha         1 YH1       0.143500
     30 H10         -6.1020    -0.0010    10.0030 ha         1 YH1       0.142000
     31 H11         -5.7560     0.0040     7.5650 ha         1 YH1       0.143500
     32 H12         -3.4750     0.0070     6.6390 ha         1 YH1       0.144000
     33 H083         3.0160     0.0000    -1.0350 hn         1 YH1       0.476467
@<TRIPOS>BOND
     1     8     2 1
     2     3     2 2
     3     3     4 1
     4     2     1 1
     5     1     6 1
     6     4     9 1
     7     4     5 2
     8     9    10 1
     9     6     5 1
    10     6     7 2
    11     5    11 1
    12    10    11 2
    13    10    12 1
    14    13    12 1
    15    13    14 1
    16    21    20 ar
    17    21    15 ar
    18    20    19 ar
    19    14    15 1
    20    14    16 2
    21    15    17 ar
    22    19    18 ar
    23    17    18 ar
    24     1    22 1
    25     8    23 1
    26     8    24 1
    27     9    25 1
    28    13    26 1
    29    13    27 1
    30    17    28 1
    31    18    29 1
    32    19    30 1
    33    20    31 1
    34    21    32 1
    35    33     8 1
@<TRIPOS>SUBSTRUCTURE
     1 YH1         1 TEMP              0 ****  ****    0 ROOT
