@<TRIPOS>MOLECULE
molecule
   32    34     1     0     0
SMALL
bcc


@<TRIPOS>ATOM
      1 C01          0.0000     0.0000     0.0000 c          1 YH2       0.629000
      2 N02          1.3510     0.0000     0.0000 ns         1 YH2      -0.454400
      3 C03          2.0400     0.0000     1.1760 cc         1 YH2       0.376800
      4 N04          1.4280    -0.0010     2.3390 nd         1 YH2      -0.534100
      5 C05          0.0910    -0.0020     2.4160 cd         1 YH2       0.006800
      6 C06         -0.6710     0.0040     1.2440 cc         1 YH2       0.339800
      7 O07         -0.6250    -0.0000    -1.0470 o          1 YH2      -0.518500
      8 N08          3.4130     0.0010     1.1450 nz         1 YH2      -0.881600
      9 N09         -0.8040    -0.0030     3.4570 na         1 YH2      -0.234900
     10 C10         -2.0620    -0.0040     2.9170 cd         1 YH2       0.585800
     11 N11         -1.9790     0.0020     1.6100 nc         1 YH2      -0.606000
     12 S12         -3.5630    -0.0050     3.8400 ss         1 YH2      -0.266400
     13 C13         -4.7650    -0.0050     2.4870 c3         1 YH2      -0.159000
     14 C14         -6.1600    -0.0060     3.0530 ca         1 YH2      -0.188300
     15 C15         -6.7990     1.1940     3.3140 ca         1 YH2      -0.096500
     16 C16         -8.0780     1.1990     3.8330 ca         1 YH2      -0.084500
     17 C17         -8.7270    -0.0080     4.0950 ca         1 YH2       0.021000
     18 C18         -8.0760    -1.2150     3.8310 ca         1 YH2      -0.084500
     19 C19         -6.8000    -1.2060     3.3060 ca         1 YH2      -0.096500
     20 C20        -10.0530    -0.0090     4.6350 cg         1 YH2       0.205800
     21 N21        -11.0980    -0.0210     5.0790 n1         1 YH2      -0.292800
     22 H1           1.9890     0.1420    -0.7580 hn         1 YH2       0.326500
     23 H2           3.7230    -0.3980     2.0080 hn         1 YH2       0.539467
     24 H3           3.6800     0.9380     0.9150 hn         1 YH2       0.539467
     25 H4          -0.8860     0.6840     4.1800 hn         1 YH2       0.318700
     26 H6          -4.9400     1.0410     2.2630 h1         1 YH2       0.188200
     27 H7          -5.6370    -0.3600     3.0220 h1         1 YH2       0.188200
     28 H8          -6.3290     2.1620     3.1920 ha         1 YH2       0.174500
     29 H9          -8.8500     1.9550     3.9060 ha         1 YH2       0.172500
     30 H10         -8.7510    -2.0430     4.0080 ha         1 YH2       0.172500
     31 H11         -6.0050    -1.8610     2.9680 ha         1 YH2       0.174500
     32 H083         3.4490     0.5460     0.3060 hn         1 YH2       0.539467
@<TRIPOS>BOND
     1     8     3 1
     2     4     3 2
     3     4     5 1
     4     3     2 1
     5     5     9 1
     6     5     6 2
     7     2     1 1
     8     9    10 1
     9     6     1 1
    10     6    11 1
    11     1     7 2
    12    21    20 3
    13    10    11 2
    14    10    12 1
    15    20    17 1
    16    12    13 1
    17    18    17 ar
    18    18    19 ar
    19    17    16 ar
    20    19    14 ar
    21    16    15 ar
    22    14    15 ar
    23    14    13 1
    24     2    22 1
    25     8    23 1
    26     8    24 1
    27     9    25 1
    28    13    26 1
    29    13    27 1
    30    15    28 1
    31    16    29 1
    32    18    30 1
    33    19    31 1
    34    32     8 1
@<TRIPOS>SUBSTRUCTURE
     1 YH2         1 TEMP              0 ****  ****    0 ROOT
