@<TRIPOS>MOLECULE
YH2
   32    35     1     0     0
SMALL
bcc


@<TRIPOS>ATOM
      1 C01          0.0000     0.0000     0.0000 c2         1 YH2       0.270000
      2 N02          1.3510     0.0000     0.0000 ns         1 YH2       0.177000
      3 C03          2.0400     0.0000     1.1760 c2         1 YH2      -0.484000
      4 N04          1.4280    -0.0010     2.3390 n2         1 YH2       0.093000
      5 C05          0.0910    -0.0020     2.4160 c2         1 YH2      -0.281000
      6 C06         -0.6710     0.0040     1.2440 c2         1 YH2      -0.105000
      7 O07         -0.6250    -0.0000    -1.0470 o          1 YH2      -0.287000
      8 N08          3.4130     0.0010     1.1450 nz         1 YH2       0.667000
      9 N09         -0.8040    -0.0030     3.4570 na         1 YH2       0.362000
     10 C10         -2.0620    -0.0040     2.9170 c2         1 YH2      -0.241000
     11 N11         -1.9790     0.0020     1.6100 n2         1 YH2       0.025000
     12 S12         -3.5630    -0.0050     3.8400 ss         1 YH2       0.117000
     13 C13         -4.7650    -0.0050     2.4870 c3         1 YH2      -0.340000
     14 C14         -6.1600    -0.0060     3.0530 c3         1 YH2      -0.175000
     15 C15         -6.7990     1.1940     3.3140 c2         1 YH2      -0.060000
     16 C16         -8.0780     1.1990     3.8330 c2         1 YH2      -0.058500
     17 C17         -8.7270    -0.0080     4.0950 c2         1 YH2       0.073000
     18 C18         -8.0760    -1.2150     3.8310 c2         1 YH2      -0.058500
     19 C19         -6.8000    -1.2060     3.3060 c2         1 YH2      -0.060000
     20 C20        -10.0530    -0.0090     4.6350 c1         1 YH2      -0.145000
     21 N21        -11.0980    -0.0210     5.0790 n1         1 YH2       0.023000
     22 H1           1.9890     0.1420    -0.7580 hn         1 YH2       0.081000
     23 H2           3.7230    -0.3980     2.0080 hn         1 YH2       0.114000
     24 H3           3.6800     0.9380     0.9150 hn         1 YH2       0.114000
     25 H4          -0.8860     0.6840     4.1800 hn         1 YH2       0.108000
     26 H6          -4.9400     1.0410     2.2630 h1         1 YH2       0.093000
     27 H7          -5.6370    -0.3600     3.0220 DU         1 YH2       0.304000
     28 H8          -6.3290     2.1620     3.1920 ha         1 YH2       0.143000
     29 H9          -8.8500     1.9550     3.9060 ha         1 YH2       0.137000
     30 H10         -8.7510    -2.0430     4.0080 ha         1 YH2       0.137000
     31 H11         -6.0050    -1.8610     2.9680 ha         1 YH2       0.143000
     32 H083         3.4490     0.5460     0.3060 hn         1 YH2       0.114000
@<TRIPOS>BOND
     1     1     2 1   
     2     1     6 1   
     3     1     7 1   
     4     2     3 1   
     5     2    22 1   
     6     3     4 1   
     7     3     8 1   
     8     4     5 1   
     9     5     6 1   
    10     5     9 1   
    11     6    11 1   
    12     8    23 1   
    13     8    24 1   
    14     8    32 1   
    15     9    10 1   
    16     9    25 1   
    17    10    11 1   
    18    10    12 1   
    19    12    13 1   
    20    13    14 1   
    21    13    26 1   
    22    13    27 1   
    23    14    15 1   
    24    14    19 1   
    25    14    27 1   
    26    15    16 1   
    27    15    28 1   
    28    16    17 1   
    29    16    29 1   
    30    17    18 1   
    31    17    20 1   
    32    18    19 1   
    33    18    30 1   
    34    19    31 1   
    35    20    21 1   
@<TRIPOS>SUBSTRUCTURE
     1 YH2         1 TEMP              0 ****  ****    0 ROOT
