@<TRIPOS>MOLECULE
YH3
   36    38     1     0     0
SMALL
bcc


@<TRIPOS>ATOM
      1 O16          0.0000     0.0000     0.0000 o          1 YH3      -0.537100
      2 C14          1.2130     0.0000     0.0000 c          1 YH3       0.647700
      3 C15          1.9480     0.0000     1.2740 ca         1 YH3      -0.196600
      4 C17          1.2530    -0.0010     2.4880 ca         1 YH3      -0.025000
      5 C18          1.9490    -0.0000     3.6780 ca         1 YH3      -0.097300
      6 C22          1.2010    -0.0010     4.9860 c3         1 YH3       0.063200
      7 C19          3.3330    -0.0010     3.6730 ca         1 YH3      -0.056000
      8 C20          4.0290    -0.0010     2.4770 ca         1 YH3      -0.105000
      9 C21          3.3480    -0.0050     1.2780 ca         1 YH3      -0.076000
     10 C13          1.9670    -0.0060    -1.3050 c3         1 YH3      -0.004300
     11 S12          0.7900    -0.0040    -2.6810 ss         1 YH3      -0.276400
     12 C10          1.9110    -0.0110    -4.0410 cc         1 YH3       0.383800
     13 N09          1.5490    -0.0070    -5.3610 na         1 YH3       0.336100
     14 C04          2.7030    -0.0100    -6.1050 cc         1 YH3      -0.258200
     15 C05          3.7590    -0.0160    -5.1900 cd         1 YH3       0.302800
     16 N11          3.2160    -0.0160    -3.9440 nd         1 YH3      -0.542000
     17 N03          2.9630    -0.0070    -7.4180 nc         1 YH3      -0.335100
     18 C02          4.1990    -0.0100    -7.8650 cd         1 YH3      -0.036200
     19 N08          4.4180    -0.0080    -9.2210 nz         1 YH3       0.227400
     20 N01          5.2690    -0.0170    -7.0210 ns         1 YH3       0.001600
     21 C06          5.0830    -0.0190    -5.6830 c          1 YH3       0.520000
     22 O07          6.0340    -0.0240    -4.9190 o          1 YH3      -0.571500
     23 H1           0.1720    -0.0720     2.4920 ha         1 YH3       0.128000
     24 H2           0.7880    -0.9860     5.1650 hc         1 YH3       0.013700
     25 H3           1.8800     0.2570     5.7900 hc         1 YH3       0.013700
     26 H4           0.3990     0.7260     4.9440 hc         1 YH3       0.013700
     27 H5           3.8740     0.0010     4.6120 ha         1 YH3       0.113000
     28 H6           5.1120    -0.0040     2.4820 ha         1 YH3       0.111000
     29 H7           3.8940    -0.0060     0.3430 ha         1 YH3       0.104000
     30 H8           2.5860    -0.8930    -1.3610 h1         1 YH3       0.076200
     31 H9           2.5930     0.8760    -1.3640 h1         1 YH3       0.076200
     32 H10          0.6200     0.1050    -5.7170 hn         1 YH3       0.150700
     33 H12          3.5400     0.0080    -9.7010 hn         1 YH3       0.215133
     34 H13          4.9240    -0.8320    -9.4790 hn         1 YH3       0.215133
     35 H14          6.1980    -0.0190    -7.3950 hn         1 YH3       0.188500
     36 H083         4.9500     0.8020    -9.4720 hn         1 YH3       0.215133
@<TRIPOS>BOND
     1     1     2 2   
     2     2     3 1   
     3     2    10 1   
     4     3     4 ar  
     5     3     9 ar  
     6     4     5 ar  
     7     4    23 1   
     8     5     6 1   
     9     5     7 ar  
    10     6    24 1   
    11     6    25 1   
    12     6    26 1   
    13     7     8 ar  
    14     7    27 1   
    15     8     9 ar  
    16     8    28 1   
    17     9    29 1   
    18    10    11 1   
    19    10    30 1   
    20    10    31 1   
    21    11    12 1   
    22    12    13 1   
    23    12    16 2   
    24    13    14 1   
    25    13    32 1   
    26    14    15 2   
    27    14    17 1   
    28    15    16 1   
    29    15    21 1   
    30    17    18 2   
    31    18    19 1   
    32    18    20 1   
    33    19    33 1   
    34    19    34 1   
    35    19    36 1   
    36    20    21 1   
    37    20    35 1   
    38    21    22 2   
@<TRIPOS>SUBSTRUCTURE
     1 YH3         1 TEMP              0 ****  ****    0 ROOT
