@<TRIPOS>MOLECULE
molecule
   36    38     1     0     0
SMALL
bcc


@<TRIPOS>ATOM
      1 O16          0.0000     0.0000     0.0000 o          1 YH3      -0.514100
      2 C14          1.2130     0.0000     0.0000 c          1 YH3       0.597700
      3 C15          1.9480     0.0000     1.2740 ca         1 YH3      -0.183600
      4 C17          1.2530    -0.0010     2.4880 ca         1 YH3      -0.058000
      5 C18          1.9490    -0.0000     3.6780 ca         1 YH3      -0.089300
      6 C22          1.2010    -0.0010     4.9860 c3         1 YH3      -0.049800
      7 C19          3.3330    -0.0010     3.6730 ca         1 YH3      -0.086000
      8 C20          4.0290    -0.0010     2.4770 ca         1 YH3      -0.134000
      9 C21          3.3480    -0.0050     1.2780 ca         1 YH3      -0.099000
     10 C13          1.9670    -0.0060    -1.3050 c3         1 YH3      -0.120300
     11 S12          0.7900    -0.0040    -2.6810 ss         1 YH3      -0.139400
     12 C10          1.9110    -0.0110    -4.0410 cc         1 YH3       0.582800
     13 N09          1.5490    -0.0070    -5.3610 na         1 YH3      -0.256900
     14 C04          2.7030    -0.0100    -6.1050 cd         1 YH3       0.015800
     15 C05          3.7590    -0.0160    -5.1900 cc         1 YH3       0.329800
     16 N11          3.2160    -0.0160    -3.9440 nc         1 YH3      -0.647000
     17 N03          2.9630    -0.0070    -7.4180 nd         1 YH3      -0.545100
     18 C02          4.1990    -0.0100    -7.8650 cc         1 YH3       0.433800
     19 N08          4.4180    -0.0080    -9.2210 nz         1 YH3      -0.722600
     20 N01          5.2690    -0.0170    -7.0210 ns         1 YH3      -0.465400
     21 C06          5.0830    -0.0190    -5.6830 c          1 YH3       0.623000
     22 O07          6.0340    -0.0240    -4.9190 o          1 YH3      -0.532500
     23 H1           0.1720    -0.0720     2.4920 ha         1 YH3       0.157000
     24 H2           0.7880    -0.9860     5.1650 hc         1 YH3       0.051033
     25 H3           1.8800     0.2570     5.7900 hc         1 YH3       0.051033
     26 H4           0.3990     0.7260     4.9440 hc         1 YH3       0.051033
     27 H5           3.8740     0.0010     4.6120 ha         1 YH3       0.142000
     28 H6           5.1120    -0.0040     2.4820 ha         1 YH3       0.141000
     29 H7           3.8940    -0.0060     0.3430 ha         1 YH3       0.130000
     30 H8           2.5860    -0.8930    -1.3610 h1         1 YH3       0.109200
     31 H9           2.5930     0.8760    -1.3640 h1         1 YH3       0.109200
     32 H10          0.6200     0.1050    -5.7170 hn         1 YH3       0.338700
     33 H12          3.5400     0.0080    -9.7010 hn         1 YH3       0.476467
     34 H13          4.9240    -0.8320    -9.4790 hn         1 YH3       0.476467
     35 H14          6.1980    -0.0190    -7.3950 hn         1 YH3       0.350500
     36 H083         4.9500     0.8020    -9.4720 hn         1 YH3       0.476467
@<TRIPOS>BOND
     1    19    18 1
     2    18    17 2
     3    18    20 1
     4    17    14 1
     5    20    21 1
     6    14    13 1
     7    14    15 2
     8    13    12 1
     9    21    15 1
    10    21    22 2
    11    15    16 1
    12    12    16 2
    13    12    11 1
    14    11    10 1
    15    10     2 1
    16     9     8 ar
    17     9     3 ar
    18     8     7 ar
    19     2     3 1
    20     2     1 2
    21     3     4 ar
    22     7     5 ar
    23     4     5 ar
    24     5     6 1
    25     4    23 1
    26     6    24 1
    27     6    25 1
    28     6    26 1
    29     7    27 1
    30     8    28 1
    31     9    29 1
    32    10    30 1
    33    10    31 1
    34    13    32 1
    35    19    33 1
    36    19    34 1
    37    20    35 1
    38    36    19 1
@<TRIPOS>SUBSTRUCTURE
     1 YH3         1 TEMP              0 ****  ****    0 ROOT
