@<TRIPOS>MOLECULE
YH4
   36    38     1     0     0
SMALL
bcc


@<TRIPOS>ATOM
      1 O16          0.0000     0.0000     0.0000 o          1 YH4      -0.536100
      2 C14          1.2120     0.0000     0.0000 c          1 YH4       0.647700
      3 C15          1.9480     0.0000     1.2740 ca         1 YH4      -0.203600
      4 C21          1.2580     0.1200     2.4850 ca         1 YH4      -0.000300
      5 C22         -0.2440     0.2500     2.4890 c3         1 YH4       0.045200
      6 C20          1.9540     0.1180     3.6740 ca         1 YH4      -0.115000
      7 C19          3.3330    -0.0010     3.6740 ca         1 YH4      -0.047000
      8 C18          4.0240    -0.1210     2.4790 ca         1 YH4      -0.122000
      9 C17          3.3410    -0.1260     1.2810 ca         1 YH4      -0.064000
     10 C13          1.9650    -0.0050    -1.3050 c3         1 YH4      -0.007300
     11 S12          0.7890    -0.0100    -2.6800 ss         1 YH4      -0.280400
     12 C10          1.9090    -0.0150    -4.0410 cc         1 YH4       0.363800
     13 N11          1.5490    -0.0210    -5.3540 na         1 YH4       0.400100
     14 C05          2.7230    -0.0230    -6.0940 cc         1 YH4      -0.483200
     15 C06          3.0230    -0.0270    -7.4620 c          1 YH4       0.652100
     16 O07          2.1320    -0.0310    -8.2960 o          1 YH4      -0.614500
     17 N01          4.3220    -0.0280    -7.8380 ns         1 YH4       0.009600
     18 C02          5.3090    -0.0240    -6.8970 cc         1 YH4      -0.029200
     19 N08          6.6200    -0.0240    -7.3080 nz         1 YH4       0.219400
     20 N03          5.0430    -0.0180    -5.6120 nd         1 YH4      -0.388700
     21 C04          3.7720    -0.0180    -5.1660 cd         1 YH4       0.463300
     22 N09          3.2200    -0.0090    -3.9430 nd         1 YH4      -0.567000
     23 H1          -0.5310     1.1280     1.9230 hc         1 YH4       0.024700
     24 H2          -0.5950     0.3470     3.5090 hc         1 YH4       0.024700
     25 H3          -0.6840    -0.6310     2.0370 hc         1 YH4       0.024700
     26 H4           1.4210     0.2110     4.6120 ha         1 YH4       0.119000
     27 H5           3.8750     0.0010     4.6120 ha         1 YH4       0.109000
     28 H6           5.1030    -0.2160     2.4870 ha         1 YH4       0.109000
     29 H7           3.8830    -0.2200     0.3480 ha         1 YH4       0.100000
     30 H8           2.5880     0.8790    -1.3660 h1         1 YH4       0.072200
     31 H9           2.5880    -0.8900    -1.3590 h1         1 YH4       0.072200
     32 H10          0.6280    -0.1880    -5.7110 hn         1 YH4       0.158700
     33 H11          4.5590    -0.0320    -8.8100 hn         1 YH4       0.190500
     34 H12          6.7980     0.7930    -7.8570 hn         1 YH4       0.217467
     35 H13          6.7970    -0.8410    -7.8580 hn         1 YH4       0.217467
     36 H083         7.2200    -0.0250    -6.5070 hn         1 YH4       0.217467
@<TRIPOS>BOND
     1     1     2 2   
     2     2     3 1   
     3     2    10 1   
     4     3     4 ar  
     5     3     9 ar  
     6     4     5 1   
     7     4     6 ar  
     8     5    23 1   
     9     5    24 1   
    10     5    25 1   
    11     6     7 ar  
    12     6    26 1   
    13     7     8 ar  
    14     7    27 1   
    15     8     9 ar  
    16     8    28 1   
    17     9    29 1   
    18    10    11 1   
    19    10    30 1   
    20    10    31 1   
    21    11    12 1   
    22    12    13 1   
    23    12    22 2   
    24    13    14 1   
    25    13    32 1   
    26    14    15 1   
    27    14    21 2   
    28    15    16 2   
    29    15    17 1   
    30    17    18 1   
    31    17    33 1   
    32    18    19 1   
    33    18    20 2   
    34    19    34 1   
    35    19    35 1   
    36    19    36 1   
    37    20    21 1   
    38    21    22 1   
@<TRIPOS>SUBSTRUCTURE
     1 YH4         1 TEMP              0 ****  ****    0 ROOT
