@<TRIPOS>MOLECULE
molecule
   36    38     1     0     0
SMALL
bcc


@<TRIPOS>ATOM
      1 O16          0.0000     0.0000     0.0000 o          1 YH4      -0.514100
      2 C14          1.2120     0.0000     0.0000 c          1 YH4       0.596700
      3 C15          1.9480     0.0000     1.2740 ca         1 YH4      -0.190600
      4 C21          1.2580     0.1200     2.4850 ca         1 YH4      -0.004300
      5 C22         -0.2440     0.2500     2.4890 c3         1 YH4      -0.051800
      6 C20          1.9540     0.1180     3.6740 ca         1 YH4      -0.139000
      7 C19          3.3330    -0.0010     3.6740 ca         1 YH4      -0.080000
      8 C18          4.0240    -0.1210     2.4790 ca         1 YH4      -0.147000
      9 C17          3.3410    -0.1260     1.2810 ca         1 YH4      -0.089000
     10 C13          1.9650    -0.0050    -1.3050 c3         1 YH4      -0.120300
     11 S12          0.7890    -0.0100    -2.6800 ss         1 YH4      -0.143400
     12 C10          1.9090    -0.0150    -4.0410 cc         1 YH4       0.582800
     13 N11          1.5490    -0.0210    -5.3540 na         1 YH4      -0.224900
     14 C05          2.7230    -0.0230    -6.0940 cd         1 YH4      -0.287200
     15 C06          3.0230    -0.0270    -7.4620 c          1 YH4       0.735100
     16 O07          2.1320    -0.0310    -8.2960 o          1 YH4      -0.568500
     17 N01          4.3220    -0.0280    -7.8380 ns         1 YH4      -0.463400
     18 C02          5.3090    -0.0240    -6.8970 cd         1 YH4       0.447800
     19 N08          6.6200    -0.0240    -7.3080 nz         1 YH4      -0.728600
     20 N03          5.0430    -0.0180    -5.6120 nc         1 YH4      -0.593700
     21 C04          3.7720    -0.0180    -5.1660 cc         1 YH4       0.585300
     22 N09          3.2200    -0.0090    -3.9430 nc         1 YH4      -0.680000
     23 H1          -0.5310     1.1280     1.9230 hc         1 YH4       0.057700
     24 H2          -0.5950     0.3470     3.5090 hc         1 YH4       0.057700
     25 H3          -0.6840    -0.6310     2.0370 hc         1 YH4       0.057700
     26 H4           1.4210     0.2110     4.6120 ha         1 YH4       0.147000
     27 H5           3.8750     0.0010     4.6120 ha         1 YH4       0.142000
     28 H6           5.1030    -0.2160     2.4870 ha         1 YH4       0.138000
     29 H7           3.8830    -0.2200     0.3480 ha         1 YH4       0.127000
     30 H8           2.5880     0.8790    -1.3660 h1         1 YH4       0.105200
     31 H9           2.5880    -0.8900    -1.3590 h1         1 YH4       0.105200
     32 H10          0.6280    -0.1880    -5.7110 hn         1 YH4       0.349700
     33 H11          4.5590    -0.0320    -8.8100 hn         1 YH4       0.352500
     34 H12          6.7980     0.7930    -7.8570 hn         1 YH4       0.479133
     35 H13          6.7970    -0.8410    -7.8580 hn         1 YH4       0.479133
     36 H083         7.2200    -0.0250    -6.5070 hn         1 YH4       0.479133
@<TRIPOS>BOND
     1    19    18 1
     2    20    18 2
     3    20    21 1
     4    18    17 1
     5    17    15 1
     6    21    22 1
     7    21    14 2
     8    22    12 2
     9    15    14 1
    10    15    16 2
    11    14    13 1
    12    12    13 1
    13    12    11 1
    14    10    11 1
    15    10     2 1
    16     8     9 ar
    17     8     7 ar
    18     9     3 ar
    19     7     6 ar
    20     3     2 1
    21     3     4 ar
    22     6     4 ar
    23     2     1 2
    24     4     5 1
    25     5    23 1
    26     5    24 1
    27     5    25 1
    28     6    26 1
    29     7    27 1
    30     8    28 1
    31     9    29 1
    32    10    30 1
    33    10    31 1
    34    13    32 1
    35    17    33 1
    36    19    34 1
    37    19    35 1
    38    36    19 1
@<TRIPOS>SUBSTRUCTURE
     1 YH4         1 TEMP              0 ****  ****    0 ROOT
