@<TRIPOS>MOLECULE
YH5
   37    39     1     0     0
SMALL
bcc


@<TRIPOS>ATOM
      1 C1           0.0000     0.0000     0.0000 c          1 YH5       0.521000
      2 O1          -0.6240     0.0040    -1.0470 o          1 YH5      -0.571500
      3 N1           2.3570     0.0000    -0.9790 nc         1 YH5      -0.541000
      4 S1           5.0700     0.0020    -1.3140 ss         1 YH5      -0.275400
      5 C10          3.8350     0.0000    -7.2670 ca         1 YH5      -0.193000
      6 C11          4.9080     0.0010    -8.1510 ca         1 YH5       0.202100
      7 C12          6.2130     0.0010    -7.6670 ca         1 YH5      -0.193000
      8 C13          6.4460     0.0020    -6.3160 ca         1 YH5       0.002500
      9 C14          5.8320     0.0010   -10.3390 c3         1 YH5       0.243700
     10 N2           3.4240     0.0010     0.9330 na         1 YH5       0.337100
     11 C2           1.4130     0.0000     0.0000 cc         1 YH5       0.302800
     12 O2           6.7480     0.0020    -3.5500 o          1 YH5      -0.545100
     13 N3           1.3800     0.0000     2.3660 nd         1 YH5      -0.334100
     14 C3           3.5460     0.0000    -0.4310 cd         1 YH5       0.382800
     15 O3           4.6840     0.0010    -9.4880 os         1 YH5      -0.298900
     16 C4           2.0830     0.0000     1.2270 cd         1 YH5      -0.259200
     17 N4          -0.6420     0.0000     1.1890 ns         1 YH5      -0.001400
     18 C5           0.0670     0.0010     2.3540 cc         1 YH5      -0.036200
     19 N5          -0.6120     0.0020     3.5470 nz         1 YH5       0.227400
     20 C6           4.4490     0.0010    -3.0130 c3         1 YH5      -0.005300
     21 C7           5.6110     0.0010    -3.9740 c          1 YH5       0.654700
     22 C8           5.3680     0.0010    -5.4220 ca         1 YH5      -0.253600
     23 C9           4.0570     0.0000    -5.9140 ca         1 YH5       0.002500
     24 H2           2.8210    -0.0000    -7.6480 ha         1 YH5       0.128500
     25 H3           7.0460     0.0020    -8.3590 ha         1 YH5       0.128500
     26 H4           7.4620     0.0020    -5.9410 ha         1 YH5       0.113500
     27 H5           5.5140     0.0010   -11.3740 h1         1 YH5       0.003700
     28 H6           6.4260     0.8860   -10.1440 h1         1 YH5       0.003700
     29 H7           6.4260    -0.8830   -10.1430 h1         1 YH5       0.003700
     30 H8           4.1750     0.0010     1.5950 hn         1 YH5       0.150700
     31 H9          -1.6430     0.0010     1.2140 hn         1 YH5       0.189500
     32 H10          0.0430     0.0030     4.3040 hn         1 YH5       0.215133
     33 H11         -1.1870    -0.8150     3.6050 hn         1 YH5       0.215133
     34 H12          3.8450     0.8850    -3.1780 h1         1 YH5       0.074700
     35 H13          3.8460    -0.8840    -3.1770 h1         1 YH5       0.074700
     36 H14          3.2190    -0.0010    -5.2260 ha         1 YH5       0.113500
     37 H53         -1.1880     0.8190     3.6030 hn         1 YH5       0.215133
@<TRIPOS>BOND
     1     1     2 2   
     2     1    11 1   
     3     1    17 1   
     4     3    11 1   
     5     3    14 2   
     6     4    14 1   
     7     4    20 1   
     8     5     6 ar  
     9     5    23 ar  
    10     5    24 1   
    11     6     7 ar  
    12     6    15 1   
    13     7     8 ar  
    14     7    25 1   
    15     8    22 ar  
    16     8    26 1   
    17     9    15 1   
    18     9    27 1   
    19     9    28 1   
    20     9    29 1   
    21    10    14 1   
    22    10    16 1   
    23    10    30 1   
    24    11    16 2   
    25    12    21 2   
    26    13    16 1   
    27    13    18 2   
    28    17    18 1   
    29    17    31 1   
    30    18    19 1   
    31    19    32 1   
    32    19    33 1   
    33    19    37 1   
    34    20    21 1   
    35    20    34 1   
    36    20    35 1   
    37    21    22 1   
    38    22    23 ar  
    39    23    36 1   
@<TRIPOS>SUBSTRUCTURE
     1 YH5         1 TEMP              0 ****  ****    0 ROOT
