@<TRIPOS>MOLECULE
molecule
   36    38     1     0     0
SMALL
bcc


@<TRIPOS>ATOM
      1 O07          0.0000     0.0000     0.0000 o          1 YH6      -0.568500
      2 C06          1.2200     0.0000     0.0000 c          1 YH6       0.735100
      3 N01          1.9120     0.0000     1.1620 ns         1 YH6      -0.463400
      4 C02          3.2760    -0.0000     1.1500 cc         1 YH6       0.447800
      5 N08          3.9510    -0.0000     2.3460 nz         1 YH6      -0.728600
      6 N03          3.9600    -0.0010     0.0310 nd         1 YH6      -0.592700
      7 C04          3.3360    -0.0020    -1.1640 cd         1 YH6       0.584300
      8 C05          1.9370    -0.0070    -1.2040 cc         1 YH6      -0.285200
      9 N11          1.5850    -0.0060    -2.5470 na         1 YH6      -0.225900
     10 N09          3.7700    -0.0020    -2.4340 nd         1 YH6      -0.680000
     11 C10          2.7460    -0.0010    -3.2590 cc         1 YH6       0.582800
     12 S12          2.8580    -0.0020    -5.0170 ss         1 YH6      -0.142400
     13 C13          4.6570    -0.0040    -5.2170 c3         1 YH6      -0.120300
     14 C14          4.9990    -0.0050    -6.6850 c          1 YH6       0.596700
     15 O16          4.1140    -0.0050    -7.5140 o          1 YH6      -0.511100
     16 C15          6.4080    -0.0080    -7.1120 ca         1 YH6      -0.192600
     17 C17          6.7290    -0.0090    -8.4730 ca         1 YH6      -0.070000
     18 C18          8.0510    -0.0110    -8.8660 ca         1 YH6      -0.140500
     19 C19          9.0580    -0.0120    -7.9170 ca         1 YH6      -0.036300
     20 C22         10.5010    -0.0150    -8.3540 c3         1 YH6      -0.056800
     21 C20          8.7480    -0.0100    -6.5680 ca         1 YH6      -0.140500
     22 C21          7.4310    -0.0030    -6.1600 ca         1 YH6      -0.070000
     23 H1           1.4210     0.0000     2.0340 hn         1 YH6       0.351500
     24 H2           4.9370     0.0020     2.1720 hn         1 YH6       0.479133
     25 H3           3.7060    -0.8180     2.8680 hn         1 YH6       0.479133
     26 H4           0.6570    -0.0060    -2.9200 hn         1 YH6       0.350700
     27 H6           5.0710    -0.8890    -4.7490 h1         1 YH6       0.105700
     28 H7           5.0740     0.8800    -4.7500 h1         1 YH6       0.105700
     29 H8           5.9410    -0.0080    -9.2170 ha         1 YH6       0.142500
     30 H9           8.3020    -0.0120    -9.9190 ha         1 YH6       0.143000
     31 H10         10.9290     0.9670    -8.1910 hc         1 YH6       0.053367
     32 H11         10.5580    -0.2640    -9.4070 hc         1 YH6       0.053367
     33 H12         11.0510    -0.7490    -7.7780 hc         1 YH6       0.053367
     34 H13          9.5420    -0.0090    -5.8310 ha         1 YH6       0.143000
     35 H14          7.1890    -0.0020    -5.1040 ha         1 YH6       0.142500
     36 H083         3.7030     0.8160     2.8690 hn         1 YH6       0.479133
@<TRIPOS>BOND
     1     5     4 1
     2     6     4 2
     3     6     7 1
     4     4     3 1
     5     7    10 1
     6     7     8 2
     7     3     2 1
     8    10    11 2
     9     8     2 1
    10     8     9 1
    11     2     1 2
    12    11     9 1
    13    11    12 1
    14    12    13 1
    15    21    22 ar
    16    21    19 ar
    17    20    19 1
    18    22    16 ar
    19    19    18 ar
    20    16    14 1
    21    16    17 ar
    22    18    17 ar
    23    14    13 1
    24    14    15 2
    25     3    23 1
    26     5    24 1
    27     5    25 1
    28     9    26 1
    29    13    27 1
    30    13    28 1
    31    17    29 1
    32    18    30 1
    33    20    31 1
    34    20    32 1
    35    20    33 1
    36    21    34 1
    37    22    35 1
    38    36     5 1
@<TRIPOS>SUBSTRUCTURE
     1 YH6         1 TEMP              0 ****  ****    0 ROOT
