@<TRIPOS>MOLECULE
YH6
   36    38     1     0     0
SMALL
bcc


@<TRIPOS>ATOM
      1 O07          0.0000     0.0000     0.0000 o          1 YH6      -0.614500
      2 C06          1.2200     0.0000     0.0000 c          1 YH6       0.653100
      3 N01          1.9120     0.0000     1.1620 ns         1 YH6       0.008600
      4 C02          3.2760    -0.0000     1.1500 cc         1 YH6      -0.029200
      5 N08          3.9510    -0.0000     2.3460 nz         1 YH6       0.219400
      6 N03          3.9600    -0.0010     0.0310 nd         1 YH6      -0.387700
      7 C04          3.3360    -0.0020    -1.1640 cd         1 YH6       0.462300
      8 C05          1.9370    -0.0070    -1.2040 cc         1 YH6      -0.484200
      9 N11          1.5850    -0.0060    -2.5470 na         1 YH6       0.403100
     10 N09          3.7700    -0.0020    -2.4340 nd         1 YH6      -0.567000
     11 C10          2.7460    -0.0010    -3.2590 cc         1 YH6       0.362800
     12 S12          2.8580    -0.0020    -5.0170 ss         1 YH6      -0.279400
     13 C13          4.6570    -0.0040    -5.2170 c3         1 YH6      -0.005300
     14 C14          4.9990    -0.0050    -6.6850 c          1 YH6       0.646700
     15 O16          4.1140    -0.0050    -7.5140 o          1 YH6      -0.533100
     16 C15          6.4080    -0.0080    -7.1120 ca         1 YH6      -0.208600
     17 C17          6.7290    -0.0090    -8.4730 ca         1 YH6      -0.040000
     18 C18          8.0510    -0.0110    -8.8660 ca         1 YH6      -0.114500
     19 C19          9.0580    -0.0120    -7.9170 ca         1 YH6      -0.040300
     20 C22         10.5010    -0.0150    -8.3540 c3         1 YH6       0.055200
     21 C20          8.7480    -0.0100    -6.5680 ca         1 YH6      -0.114500
     22 C21          7.4310    -0.0030    -6.1600 ca         1 YH6      -0.040000
     23 H1           1.4210     0.0000     2.0340 hn         1 YH6       0.190500
     24 H2           4.9370     0.0020     2.1720 hn         1 YH6       0.217467
     25 H3           3.7060    -0.8180     2.8680 hn         1 YH6       0.217467
     26 H4           0.6570    -0.0060    -2.9200 hn         1 YH6       0.157700
     27 H6           5.0710    -0.8890    -4.7490 h1         1 YH6       0.071700
     28 H7           5.0740     0.8800    -4.7500 h1         1 YH6       0.071700
     29 H8           5.9410    -0.0080    -9.2170 ha         1 YH6       0.113000
     30 H9           8.3020    -0.0120    -9.9190 ha         1 YH6       0.115500
     31 H10         10.9290     0.9670    -8.1910 hc         1 YH6       0.015367
     32 H11         10.5580    -0.2640    -9.4070 hc         1 YH6       0.015367
     33 H12         11.0510    -0.7490    -7.7780 hc         1 YH6       0.015367
     34 H13          9.5420    -0.0090    -5.8310 ha         1 YH6       0.115500
     35 H14          7.1890    -0.0020    -5.1040 ha         1 YH6       0.113000
     36 H083         3.7030     0.8160     2.8690 hn         1 YH6       0.217467
@<TRIPOS>BOND
     1     1     2 2   
     2     2     3 1   
     3     2     8 1   
     4     3     4 1   
     5     3    23 1   
     6     4     5 1   
     7     4     6 2   
     8     5    24 1   
     9     5    25 1   
    10     5    36 1   
    11     6     7 1   
    12     7     8 2   
    13     7    10 1   
    14     8     9 1   
    15     9    11 1   
    16     9    26 1   
    17    10    11 2   
    18    11    12 1   
    19    12    13 1   
    20    13    14 1   
    21    13    27 1   
    22    13    28 1   
    23    14    15 2   
    24    14    16 1   
    25    16    17 ar  
    26    16    22 ar  
    27    17    18 ar  
    28    17    29 1   
    29    18    19 ar  
    30    18    30 1   
    31    19    20 1   
    32    19    21 ar  
    33    20    31 1   
    34    20    32 1   
    35    20    33 1   
    36    21    22 ar  
    37    21    34 1   
    38    22    35 1   
@<TRIPOS>SUBSTRUCTURE
     1 YH6         1 TEMP              0 ****  ****    0 ROOT
