@<TRIPOS>MOLECULE
YH7
   17    18     1     0     0
SMALL
bcc


@<TRIPOS>ATOM
      1 C01          0.0000     0.0000     0.0000 cc         1 YH7       0.279300
      2 C02          1.4100     0.0000     0.0000 cc         1 YH7      -0.251600
      3 N03          2.0670     0.0000     1.1550 nd         1 YH7      -0.015400
      4 C04          1.4170    -0.0000     2.3120 cs         1 YH7       0.302800
      5 N05          0.0730    -0.0000     2.3710 ns         1 YH7       0.206900
      6 C06         -0.6690     0.0050     1.2250 cd         1 YH7      -0.432400
      7 N07         -0.3980     0.0010    -1.2990 nc         1 YH7      -0.676000
      8 C08          0.6470     0.0010    -2.0710 cd         1 YH7       0.447400
      9 N09          1.7870     0.0010    -1.3160 na         1 YH7       0.195100
     10 N10         -2.0360     0.0060     1.2780 nz         1 YH7       0.325600
     11 S11          2.3130    -0.0020     3.7700 s          1 YH7      -0.448400
     12 HN10        -2.3400     0.5830     2.0360 hn         1 YH7       0.213800
     13 HN1A        -2.4030     0.3640     0.4180 hn         1 YH7       0.213800
     14 H3          -0.3850    -0.0050     3.2600 hn         1 YH7       0.200500
     15 H08          0.6230    -0.5280    -3.0160 h5         1 YH7       0.049100
     16 H5           2.7260     0.0010    -1.6630 hn         1 YH7       0.177700
     17 H103        -2.3650    -0.9290     1.4170 hn         1 YH7       0.213800
@<TRIPOS>BOND
     1     1     2 1   
     2     1     6 2   
     3     1     7 1   
     4     2     3 2   
     5     2     9 1   
     6     3     4 1   
     7     4     5 1   
     8     4    11 2   
     9     5     6 1   
    10     5    14 1   
    11     6    10 1   
    12     7     8 2   
    13     8     9 1   
    14     8    15 1   
    15     9    16 1   
    16    10    12 1   
    17    10    13 1   
    18    10    17 1   
@<TRIPOS>SUBSTRUCTURE
     1 YH7         1 TEMP              0 ****  ****    0 ROOT
