@<TRIPOS>MOLECULE
YHO
   21    21     1     0     0
SMALL
bcc


@<TRIPOS>ATOM
      1 O3           0.0000     0.0000     0.0000 oh         1 YHO      -0.530800
      2 C3           1.4290     0.0000     0.0000 c3         1 YHO       0.161100
      3 C2           1.9560     0.0000     1.4460 c3         1 YHO       0.165100
      4 O2           0.8630     0.0000     2.3660 oh         1 YHO      -0.584800
      5 C1           2.7860     1.2900     1.6120 c3         1 YHO      -0.101500
      6 N1           2.5880     1.8590     2.9510 nz         1 YHO       0.099400
      7 C5           2.2270     2.2450     0.5280 c3         1 YHO      -0.049400
      8 C4           1.9570     1.2900    -0.6620 c3         1 YHO       0.191100
      9 O4           0.9700     1.8440    -1.5350 oh         1 YHO      -0.536800
     10 HO3         -0.3140    -0.7680    -0.4480 ho         1 YHO       0.406000
     11 H3           1.8050    -0.8670    -0.5300 h1         1 YHO       0.025700
     12 H2           2.5850    -0.8670     1.6090 h1         1 YHO       0.029700
     13 HO2          0.7820    -0.8540     2.7580 ho         1 YHO       0.430000
     14 H1           3.8350     1.0880     1.4310 hx         1 YHO       0.092700
     15 HN1          2.8080     1.1700     3.6430 hn         1 YHO       0.225467
     16 HN1A         3.1870     2.6520     3.0680 hn         1 YHO       0.225467
     17 H5           2.9650     2.9910     0.2600 hc         1 YHO       0.051700
     18 H5A          1.3070     2.7070     0.8640 hc         1 YHO       0.051700
     19 H4           2.8760     1.0890    -1.1990 h1         1 YHO       0.018700
     20 HO4          1.3780     2.1110    -2.3420 ho         1 YHO       0.403000
     21 H13          1.6390     2.1610     3.0490 hn         1 YHO       0.225467
@<TRIPOS>BOND
     1     1     2 1   
     2     1    10 1   
     3     2     3 1   
     4     2     8 1   
     5     2    11 1   
     6     3     4 1   
     7     3     5 1   
     8     3    12 1   
     9     4    13 1   
    10     5     6 1   
    11     5     7 1   
    12     5    14 1   
    13     6    15 1   
    14     6    16 1   
    15     6    21 1   
    16     7     8 1   
    17     7    17 1   
    18     7    18 1   
    19     8     9 1   
    20     8    19 1   
    21     9    20 1   
@<TRIPOS>SUBSTRUCTURE
     1 YHO         1 TEMP              0 ****  ****    0 ROOT
