@<TRIPOS>MOLECULE
molecule
   20    21     1     0     0
SMALL
bcc


@<TRIPOS>ATOM
      1 O01          0.0000     0.0000     0.0000 o          1 YHX      -0.188500
      2 N02          1.2180     0.0000     0.0000 no         1 YHX       0.293200
      3 O03          1.8280     0.0000     1.0550 o          1 YHX      -0.188500
      4 C04          1.9580    -0.0070    -1.2810 ca         1 YHX      -0.132200
      5 C05          3.1150     0.7040    -1.4280 ca         1 YHX      -0.078000
      6 C06          3.7960     0.6830    -2.6440 ca         1 YHX      -0.112300
      7 N07          3.3560    -0.0070    -3.6690 na         1 YHX       0.157600
      8 O08          4.0880     0.0070    -4.8800 o          1 YHX      -0.340000
      9 C09          2.2300    -0.7250    -3.5920 ca         1 YHX      -0.034300
     10 C10          1.4920    -0.7510    -2.3820 ca         1 YHX      -0.015000
     11 C11          0.3140    -1.5120    -2.3040 ca         1 YHX      -0.126000
     12 C12         -0.1040    -2.2180    -3.3900 ca         1 YHX      -0.087000
     13 C13          0.6230    -2.1980    -4.5790 ca         1 YHX      -0.118000
     14 C14          1.7630    -1.4630    -4.6920 ca         1 YHX      -0.075000
     15 H05          3.5040     1.2840    -0.5990 ha         1 YHX       0.181000
     16 H06          4.7130     1.2520    -2.7450 h4         1 YHX       0.203000
     17 H14          2.3160    -1.4580    -5.6240 ha         1 YHX       0.185000
     18 H11         -0.2590    -1.5360    -1.3850 ha         1 YHX       0.176000
     19 H12         -1.0080    -2.8110    -3.3260 ha         1 YHX       0.147000
     20 H13          0.2700    -2.7680    -5.4300 ha         1 YHX       0.149000
@<TRIPOS>BOND
     1     1     2 1
     2     2     3 1
     3     2     4 1
     4     4     5 ar
     5     4    10 ar
     6     5     6 ar
     7     6     7 1
     8     7     8 1
     9     7     9 2
    10     9    10 ar
    11     9    14 ar
    12    10    11 ar
    13    11    12 ar
    14    12    13 ar
    15    13    14 ar
    16     5    15 1
    17     6    16 1
    18    14    17 1
    19    11    18 1
    20    12    19 1
    21    13    20 1
@<TRIPOS>SUBSTRUCTURE
     1 YHX         1 TEMP              0 ****  ****    0 ROOT
