@<TRIPOS>MOLECULE
YHX
   20    21     1     0     0
SMALL
bcc


@<TRIPOS>ATOM
      1 O01          0.0000     0.0000     0.0000 o          1 YHX      -0.440500
      2 N02          1.2180     0.0000     0.0000 no         1 YHX       1.058200
      3 O03          1.8280     0.0000     1.0550 o          1 YHX      -0.440500
      4 C04          1.9580    -0.0070    -1.2810 ca         1 YHX      -0.477200
      5 C05          3.1150     0.7040    -1.4280 ca         1 YHX       0.062000
      6 C06          3.7960     0.6830    -2.6440 ca         1 YHX      -0.416300
      7 N07          3.3560    -0.0070    -3.6690 na         1 YHX       0.859600
      8 O08          4.0880     0.0070    -4.8800 o          1 YHX      -0.508000
      9 C09          2.2300    -0.7250    -3.5920 ca         1 YHX      -0.318300
     10 C10          1.4920    -0.7510    -2.3820 ca         1 YHX       0.066000
     11 C11          0.3140    -1.5120    -2.3040 ca         1 YHX      -0.138000
     12 C12         -0.1040    -2.2180    -3.3900 ca         1 YHX      -0.022000
     13 C13          0.6230    -2.1980    -4.5790 ca         1 YHX      -0.112000
     14 C14          1.7630    -1.4630    -4.6920 ca         1 YHX      -0.016000
     15 H05          3.5040     1.2840    -0.5990 ha         1 YHX       0.135000
     16 H06          4.7130     1.2520    -2.7450 h4         1 YHX       0.175000
     17 H14          2.3160    -1.4580    -5.6240 ha         1 YHX       0.151000
     18 H11         -0.2590    -1.5360    -1.3850 ha         1 YHX       0.154000
     19 H12         -1.0080    -2.8110    -3.3260 ha         1 YHX       0.111000
     20 H13          0.2700    -2.7680    -5.4300 ha         1 YHX       0.117000
@<TRIPOS>BOND
     1     1     2 1   
     2     2     3 1   
     3     2     4 1   
     4     4     5 ar  
     5     4    10 ar  
     6     5     6 ar  
     7     5    15 1   
     8     6     7 1   
     9     6    16 1   
    10     7     8 1   
    11     7     9 2   
    12     9    10 ar  
    13     9    14 ar  
    14    10    11 ar  
    15    11    12 ar  
    16    11    18 1   
    17    12    13 ar  
    18    12    19 1   
    19    13    14 ar  
    20    13    20 1   
    21    14    17 1   
@<TRIPOS>SUBSTRUCTURE
     1 YHX         1 TEMP              0 ****  ****    0 ROOT
