@<TRIPOS>MOLECULE
YI0
   33    35     1     0     0
SMALL
bcc


@<TRIPOS>ATOM
      1 N1          0.0000   -0.4150    0.1220 nc        1 YI0     -0.134100
      2 N2          1.2260   -0.3180   -0.0320 nd        1 YI0     -0.258000
      3 C3          1.9390   -0.1640    1.1890 cd        1 YI0      0.332800
      4 C4          1.0920   -0.1620    2.3050 cc        1 YI0     -0.066400
      5 C6          3.3870   -0.0210    1.1750 ca        1 YI0     -0.176500
      6 C7          1.4520   -0.0590    3.6960 ca        1 YI0     -0.069000
      7 C12         0.6750    0.7210    4.5720 ca        1 YI0     -0.069500
      8 C13         1.0020    0.8170    5.9160 ca        1 YI0     -0.183500
      9 C14         2.1230    0.1180    6.4050 ca        1 YI0      0.141100
     10 C15         2.9040   -0.6650    5.5470 ca        1 YI0     -0.183500
     11 C16         2.5640   -0.7460    4.1990 ca        1 YI0     -0.069500
     12 C21         4.2160   -1.0740    0.7250 ca        1 YI0      0.189100
     13 C22         5.6060   -0.9260    0.6730 ca        1 YI0     -0.252000
     14 C23         6.1820    0.2880    1.0750 ca        1 YI0      0.186100
     15 C24         5.3660    1.3420    1.5290 ca        1 YI0     -0.112600
     16 C25         3.9800    1.1810    1.5690 ca        1 YI0     -0.025000
     17 O29         7.5480    0.3520    0.9970 oh        1 YI0     -0.487100
     18 O30         3.6030   -2.2480    0.3710 oh        1 YI0     -0.477100
     19 O33         2.3610    0.2770    7.7540 os        1 YI0     -0.322900
     20 S1         -0.4960   -0.3460    1.7340 ss        1 YI0      0.103200
     21 C34         3.4900   -0.4120    8.2810 c3        1 YI0      0.111700
     22 CL          6.0470    2.8210    2.0240 cl        1 YI0     -0.088400
     23 H25         3.3410    2.0110    1.9150 ha        1 YI0      0.161000
     24 H12        -0.2020    1.2650    4.1860 ha        1 YI0      0.144000
     25 H16         3.1760   -1.3580    3.5160 ha        1 YI0      0.144000
     26 H13         0.4020    1.4270    6.6060 ha        1 YI0      0.149000
     27 H15         3.7800   -1.2150    5.9200 ha        1 YI0      0.149000
     28 H22         6.2540   -1.7390    0.3180 ha        1 YI0      0.160000
     29 H30         4.2730   -2.8360   -0.0100 ho        1 YI0      0.427000
     30 H29         7.8320    1.2380    1.2750 ho        1 YI0      0.435000
     31 H341        4.4310   -0.0590    7.7920 h1        1 YI0      0.047367
     32 H342        3.3720   -1.5160    8.1550 h1        1 YI0      0.047367
     33 H343        3.4800   -0.1350    9.3660 h1        1 YI0      0.047367
@<TRIPOS>BOND
     1    1    2 2   
     2    1   20 1   
     3    2    3 1   
     4    3    4 2   
     5    3    5 1   
     6    4    6 1   
     7    4   20 1   
     8    5   12 ar  
     9    5   16 ar  
    10    6    7 ar  
    11    6   11 ar  
    12    7    8 ar  
    13    7   24 1   
    14    8    9 ar  
    15    8   26 1   
    16    9   10 ar  
    17    9   19 1   
    18   10   11 ar  
    19   10   27 1   
    20   11   25 1   
    21   12   13 ar  
    22   12   18 1   
    23   13   14 ar  
    24   13   28 1   
    25   14   15 ar  
    26   14   17 1   
    27   15   16 ar  
    28   15   22 1   
    29   16   23 1   
    30   17   30 1   
    31   18   29 1   
    32   19   21 1   
    33   21   31 1   
    34   21   32 1   
    35   21   33 1   
@<TRIPOS>SUBSTRUCTURE
     1 YI0         1 TEMP              0 ****  ****    0 ROOT
