@<TRIPOS>MOLECULE
molecule
   33    35     1     0     0
SMALL
bcc


@<TRIPOS>ATOM
      1 N1           0.0000     0.0000     0.0000 nc         1 YI0      -0.180100
      2 N2           1.2730     0.0000     0.0000 nd         1 YI0      -0.325000
      3 C3           1.9310     0.0000     1.1470 cd         1 YI0       0.366800
      4 C4           1.0640     0.0000     2.2350 cc         1 YI0      -0.080400
      5 C6           3.4090     0.0000     1.2600 ca         1 YI0      -0.133500
      6 C7           1.3940    -0.0010     3.6740 ca         1 YI0      -0.057000
      7 C12          0.3820     0.1380     4.6260 ca         1 YI0      -0.074000
      8 C13          0.6950     0.1370     5.9680 ca         1 YI0      -0.188500
      9 C14          2.0160    -0.0000     6.3750 ca         1 YI0       0.155100
     10 C15          3.0260    -0.1380     5.4320 ca         1 YI0      -0.188500
     11 C16          2.7210    -0.1440     4.0870 ca         1 YI0      -0.074000
     12 C21          4.1450    -1.1100     0.8320 ca         1 YI0       0.163100
     13 C22          5.5250    -1.1040     0.9390 ca         1 YI0      -0.220000
     14 C23          6.1760     0.0000     1.4710 ca         1 YI0       0.146100
     15 C24          5.4460     1.1020     1.8980 ca         1 YI0      -0.026600
     16 C25          4.0700     1.1080     1.7880 ca         1 YI0      -0.070000
     17 O29          7.5300     0.0020     1.5750 oh         1 YI0      -0.509100
     18 O30          3.5070    -2.1920     0.3120 oh         1 YI0      -0.493100
     19 O33          2.3210    -0.0000     7.6990 os         1 YI0      -0.325900
     20 S1          -0.5370    -0.0010     1.4710 ss         1 YI0       0.178200
     21 C34          3.6990    -0.1450     8.0470 c3         1 YI0       0.126700
     22 Cl           6.2670     2.4790     2.5630 cl         1 YI0      -0.084400
     23 H25          3.5030     1.9690     2.1220 ha         1 YI0       0.164000
     24 H12         -0.6480     0.2450     4.3090 ha         1 YI0       0.145500
     25 H16          3.5090    -0.2520     3.3520 ha         1 YI0       0.145500
     26 H13         -0.0900     0.2440     6.7070 ha         1 YI0       0.146500
     27 H15          4.0550    -0.2470     5.7530 ha         1 YI0       0.146500
     28 H22          6.0980    -1.9620     0.6080 ha         1 YI0       0.156000
     29 H30          3.9100    -2.4310    -0.5060 ho         1 YI0       0.430000
     30 H29          7.9080     0.2790     0.7570 ho         1 YI0       0.429000
     31 H341         3.8030    -0.1280     9.1250 h1         1 YI0       0.044700
     32 H342         4.2680     0.6710     7.6160 h1         1 YI0       0.044700
     33 H343         4.0710    -1.0870     7.6630 h1         1 YI0       0.044700
@<TRIPOS>BOND
     1     1     2 2
     2     1    20 1
     3     2     3 1
     4     3     4 2
     5     3     5 1
     6     4     6 1
     7     4    20 1
     8     5    12 ar
     9     5    16 ar
    10     6     7 ar
    11     6    11 ar
    12     7     8 ar
    13     8     9 ar
    14     9    10 ar
    15     9    19 1
    16    10    11 ar
    17    12    13 ar
    18    12    18 1
    19    13    14 ar
    20    14    15 ar
    21    14    17 1
    22    15    16 ar
    23    15    22 1
    24    19    21 1
    25    16    23 1
    26     7    24 1
    27    11    25 1
    28     8    26 1
    29    10    27 1
    30    13    28 1
    31    18    29 1
    32    17    30 1
    33    21    31 1
    34    21    32 1
    35    21    33 1
@<TRIPOS>SUBSTRUCTURE
     1 YI0         1 TEMP              0 ****  ****    0 ROOT
