@<TRIPOS>MOLECULE
molecule
   35    36     1     0     0
SMALL
bcc


@<TRIPOS>ATOM
      1 FAG          0.0000     0.0000     0.0000 f          1 YI1      -0.252800
      2 CAE          1.3990     0.0000     0.0000 c3         1 YI1       0.320700
      3 FAF          1.8650     0.0000     1.3190 f          1 YI1      -0.252800
      4 PAB          2.0070    -1.4880    -0.8580 p5         1 YI1       0.991700
      5 OAC          1.4620    -2.6960    -0.1980 o          1 YI1      -0.740500
      6 OAA          1.5280    -1.4550    -2.3960 o          1 YI1      -0.740500
      7 OAD          3.6160    -1.5230    -0.7970 o          1 YI1      -0.740500
      8 CAH          1.9010     1.2310    -0.7100 ca         1 YI1      -0.099300
      9 CAJ          1.1680     1.7760    -1.7490 ca         1 YI1      -0.052000
     10 CAK          1.6240     2.9050    -2.4050 ca         1 YI1      -0.151000
     11 CAL          2.8140     3.4940    -2.0260 ca         1 YI1      -0.125000
     12 CAM          3.5560     2.9490    -0.9810 cp         1 YI1      -0.097000
     13 CAI          3.0900     1.8140    -0.3200 ca         1 YI1      -0.054000
     14 CAN          4.8360     3.5770    -0.5700 cp         1 YI1       0.044000
     15 CAQ          5.3000     4.7140    -1.2280 ca         1 YI1      -0.130000
     16 CAR          6.4910     5.2940    -0.8410 ca         1 YI1      -0.102500
     17 CAS          7.2230     4.7480     0.1970 ca         1 YI1      -0.147300
     18 CAP          6.7670     3.6200     0.8540 ca         1 YI1      -0.102500
     19 CAO          5.5750     3.0350     0.4790 ca         1 YI1      -0.130000
     20 CAT          8.5240     5.3870     0.6140 c3         1 YI1       0.155700
     21 OAU          8.2720     6.3670     1.6230 os         1 YI1      -0.249100
     22 NAV          9.4730     7.0500     2.1020 nz         1 YI1      -0.645100
     23 HAJ          0.2310     1.3200    -2.0460 ha         1 YI1       0.161000
     24 HAI          3.6200     1.4360     0.5460 ha         1 YI1       0.150000
     25 HAK          1.0450     3.3290    -3.2160 ha         1 YI1       0.116000
     26 HAL          3.2050     4.3330    -2.5880 ha         1 YI1       0.105000
     27 HAQ          4.7260     5.1420    -2.0410 ha         1 YI1       0.154000
     28 HAO          5.2190     2.1500     0.9940 ha         1 YI1       0.154000
     29 HAR          6.8520     6.1790    -1.3520 ha         1 YI1       0.117500
     30 HAP          7.3440     3.1980     1.6680 ha         1 YI1       0.117500
     31 HAT1         9.1890     4.6270     1.0070 h1         1 YI1       0.032200
     32 HAT2         8.9850     5.8610    -0.2430 h1         1 YI1       0.032200
     33 HAV1        10.1040     6.3800     2.4940 hn         1 YI1       0.387133
     34 HAV2         9.2190     7.7190     2.8020 hn         1 YI1       0.387133
     35 HAV3         9.9170     7.5200     1.3380 hn         1 YI1       0.387133
@<TRIPOS>BOND
     1     1     2 1
     2     2     3 1
     3     2     4 1
     4     2     8 1
     5     4     5 1
     6     4     6 1
     7     4     7 1
     8     8     9 ar
     9     8    13 ar
    10     9    10 ar
    11    10    11 ar
    12    11    12 ar
    13    12    13 ar
    14    12    14 1
    15    14    15 ar
    16    14    19 ar
    17    15    16 ar
    18    16    17 ar
    19    17    18 ar
    20    17    20 1
    21    18    19 ar
    22    20    21 1
    23    21    22 1
    24     9    23 1
    25    13    24 1
    26    10    25 1
    27    11    26 1
    28    15    27 1
    29    19    28 1
    30    16    29 1
    31    18    30 1
    32    20    31 1
    33    20    32 1
    34    22    33 1
    35    22    34 1
    36    22    35 1
@<TRIPOS>SUBSTRUCTURE
     1 YI1         1 TEMP              0 ****  ****    0 ROOT
