@<TRIPOS>MOLECULE
molecule
   77    79     1     0     0
SMALL
bcc


@<TRIPOS>ATOM
      1 C12          0.0000     0.0000     0.0000 c3         1 YI2      -0.057400
      2 C13          1.5000     0.0000     0.0000 c3         1 YI2      -0.034800
      3 C14          1.9930     0.0000     1.4750 c3         1 YI2      -0.032500
      4 C15          3.4790    -0.2490     1.2080 c3         1 YI2      -0.049200
      5 C16          3.4450    -1.1930     0.0100 c2         1 YI2      -0.164200
      6 C21          0.7530    -2.8040    -1.4900 c3         1 YI2      -0.093100
      7 C24          3.7650    -4.4250    -4.6300 c3         1 YI2       0.170800
      8 C29          3.1480    -6.3920    -3.2180 c3         1 YI2      -0.090600
      9 C27          4.2800    -5.4400    -3.6080 c3         1 YI2      -0.089900
     10 C26          3.1890    -5.1660    -5.8390 c3         1 YI2      -0.089900
     11 C28          4.2460    -6.1190    -6.4040 c3         1 YI2      -0.090600
     12 O03          4.8420    -3.5870    -5.0540 oh         1 YI2      -0.592800
     13 S22          3.3080    -2.8140    -2.4680 ss         1 YI2      -0.315200
     14 C20          1.8920    -1.8530    -1.8660 c3         1 YI2       0.074600
     15 C17          2.3030    -1.0590    -0.6520 c2         1 YI2      -0.101400
     16 C18          1.9530     1.3360    -0.5920 c3         1 YI2      -0.100100
     17 C11         -0.4620     1.3590     0.5550 c3         1 YI2      -0.079400
     18 C09          0.1000     1.6310     1.9480 c3         1 YI2      -0.045200
     19 C08          1.5800     1.3420     2.0050 c2         1 YI2      -0.094400
     20 C07          2.4490     2.2300     2.4750 ce         1 YI2      -0.149000
     21 C06          1.9670     3.4700     3.1030 ce         1 YI2      -0.136000
     22 C05          2.8320     4.4050     3.4790 c2         1 YI2      -0.106400
     23 C10          2.3680     5.6200     4.2490 c3         1 YI2      -0.056700
     24 C01          3.1790     5.7150     5.5490 c3         1 YI2       0.191800
     25 O01          2.7900     4.6640     6.4350 oh         1 YI2      -0.601800
     26 C04          4.3020     4.2710     3.1470 c3         1 YI2      -0.056700
     27 C03          5.1070     4.3680     4.4500 c3         1 YI2       0.191800
     28 O02          6.4980     4.4970     4.1440 oh         1 YI2      -0.601800
     29 C02          4.6470     5.5830     5.2120 c2         1 YI2      -0.134400
     30 C30          5.5000     6.5060     5.5820 c2         1 YI2      -0.139200
     31 C31          5.0550     7.6250     6.4870 c3         1 YI2       0.165600
     32 O04          6.0130     7.8000     7.5340 oh         1 YI2      -0.601800
     33 H1          -0.3670    -0.1270    -1.0110 hc         1 YI2       0.043700
     34 H2          -0.3670    -0.7980     0.6340 hc         1 YI2       0.043700
     35 H3           1.5460    -0.8100     2.0380 hc         1 YI2       0.071700
     36 H4           3.9830     0.6760     0.9530 hc         1 YI2       0.055700
     37 H5           3.9460    -0.7280     2.0600 hc         1 YI2       0.055700
     38 H6           3.9260    -2.1620     0.0700 ha         1 YI2       0.154000
     39 H8           1.0660    -3.8270    -1.6610 hc         1 YI2       0.044700
     40 H9           0.5020    -2.6730    -0.4450 hc         1 YI2       0.044700
     41 H10         -0.1160    -2.5860    -2.1000 hc         1 YI2       0.044700
     42 H11          2.3730    -2.7880    -4.6810 h1         1 YI2       0.060700
     43 H12          1.8150    -4.1890    -3.7560 h1         1 YI2       0.060700
     44 H13          2.2260    -6.0660    -3.6840 hc         1 YI2       0.037367
     45 H14          3.0280    -6.3890    -2.1410 hc         1 YI2       0.037367
     46 H15          3.3870    -7.3940    -3.5520 hc         1 YI2       0.037367
     47 H16          4.6330    -4.9180    -2.7260 hc         1 YI2       0.053700
     48 H17          5.0950    -6.0070    -4.0410 hc         1 YI2       0.053700
     49 H18          2.3180    -5.7340    -5.5350 hc         1 YI2       0.053700
     50 H19          2.9050    -4.4500    -6.6000 hc         1 YI2       0.053700
     51 H20          4.0920    -6.2380    -7.4700 hc         1 YI2       0.037367
     52 H21          5.2330    -5.7090    -6.2250 hc         1 YI2       0.037367
     53 H22          4.1610    -7.0820    -5.9170 hc         1 YI2       0.037367
     54 H23          4.4960    -2.7820    -5.4030 ho         1 YI2       0.405000
     55 H24          1.5570    -1.1770    -2.6430 h1         1 YI2       0.070700
     56 H26          3.0070     1.2840    -0.8360 hc         1 YI2       0.043367
     57 H27          1.7880     2.1260     0.1310 hc         1 YI2       0.043367
     58 H28          1.3840     1.5440    -1.4900 hc         1 YI2       0.043367
     59 H29         -0.1290     2.1430    -0.1160 hc         1 YI2       0.044700
     60 H30         -1.5440     1.3680     0.6060 hc         1 YI2       0.044700
     61 H31         -0.0680     2.6710     2.2010 hc         1 YI2       0.051200
     62 H32         -0.4110     0.9990     2.6650 hc         1 YI2       0.051200
     63 H33          3.5110     2.0160     2.4450 ha         1 YI2       0.136000
     64 H34          0.9170     3.5760     3.3500 ha         1 YI2       0.130000
     65 H35          1.3160     5.5190     4.4850 hc         1 YI2       0.057950
     66 H36          2.5300     6.5100     3.6540 hc         1 YI2       0.057950
     67 H37          3.0000     6.6760     6.0170 h1         1 YI2       0.050700
     68 H38          2.2440     5.0140     7.1190 ho         1 YI2       0.402500
     69 H39          4.4820     3.3100     2.6810 hc         1 YI2       0.057950
     70 H40          4.5970     5.0690     2.4770 hc         1 YI2       0.057950
     71 H41          4.9410     3.4800     5.0470 h1         1 YI2       0.050700
     72 H42          6.9310     3.6730     4.2960 ho         1 YI2       0.402500
     73 H43          6.5500     6.4000     5.3340 ha         1 YI2       0.165000
     74 H44          4.9740     8.5410     5.9150 h1         1 YI2       0.025200
     75 H45          4.0910     7.3810     6.9160 h1         1 YI2       0.025200
     76 H46          5.8730     8.6350     7.9510 ho         1 YI2       0.401000
     77 C23          2.6710    -3.5680    -3.9900 c3         1 YI2      -0.028300
@<TRIPOS>BOND
     1    32    31 1
     2    31    30 1
     3    30    29 2
     4    25    24 1
     5    29    24 1
     6    29    27 1
     7    24    23 1
     8    27    28 1
     9    27    26 1
    10    23    22 1
    11    26    22 1
    12    22    21 2
    13    21    20 1
    14    20    19 2
    15     4     3 1
    16     4     5 1
    17    19     3 1
    18    19    18 1
    19    16     2 1
    20     3     2 1
    21    18    17 1
    22     5    15 2
    23    10    11 1
    24    10     7 1
    25     2    15 1
    26     2     1 1
    27    17     1 1
    28    15    14 1
    29    77     7 1
    30    77    13 1
    31     7    12 1
    32     7     9 1
    33     8     9 1
    34    14    13 1
    35    14     6 1
    36     1    33 1
    37     1    34 1
    38     3    35 1
    39     4    36 1
    40     4    37 1
    41     5    38 1
    42     6    39 1
    43     6    40 1
    44     6    41 1
    45    77    42 1
    46    77    43 1
    47     8    44 1
    48     8    45 1
    49     8    46 1
    50     9    47 1
    51     9    48 1
    52    10    49 1
    53    10    50 1
    54    11    51 1
    55    11    52 1
    56    11    53 1
    57    12    54 1
    58    14    55 1
    59    16    56 1
    60    16    57 1
    61    16    58 1
    62    17    59 1
    63    17    60 1
    64    18    61 1
    65    18    62 1
    66    20    63 1
    67    21    64 1
    68    23    65 1
    69    23    66 1
    70    24    67 1
    71    25    68 1
    72    26    69 1
    73    26    70 1
    74    27    71 1
    75    28    72 1
    76    30    73 1
    77    31    74 1
    78    31    75 1
    79    32    76 1
@<TRIPOS>SUBSTRUCTURE
     1 YI2         1 TEMP              0 ****  ****    0 ROOT
