@<TRIPOS>MOLECULE
YI2
   77    75     1     0     0
SMALL
bcc


@<TRIPOS>ATOM
      1 C12         1.2030    0.9770    0.1720 c3        1 YI2     -0.047200
      2 C13         1.1450   -0.4220   -0.4380 c3        1 YI2     -0.017500
      3 C14         3.7800    0.1890    1.5750 cx        1 YI2     -0.036300
      4 C15         4.7020   -0.9440    1.1450 cx        1 YI2     -0.073200
      5 C16         3.3660   -0.8000    0.5660 cu        1 YI2     -0.189400
      6 C21         3.0410   -3.6000   -0.4110 c3        1 YI2     -0.065100
      7 C24         3.1350   -2.3870   -4.6500 cy        1 YI2      0.266000
      8 C29        -0.3940   -4.3460   -2.1150 c3        1 YI2     -0.114800
      9 C27         3.8570   -3.1040   -3.5400 cv        1 YI2     -1.018200
     10 C26         1.8300   -3.0000   -5.1300 c3        1 YI2     -0.063400
     11 C28         2.0500   -4.3080   -5.8430 c3        1 YI2     -0.083100
     12 O03         3.9140   -2.0840   -5.7870 oh        1 YI2     -0.587800
     13 S22         3.7840   -1.9990   -2.4240 s4        1 YI2      0.445400
     14 C20         2.5870   -2.3740   -1.1650 c3        1 YI2     -0.039200
     15 C17         2.4320   -1.1830   -0.2870 c2        1 YI2     -0.025400
     16 C18        -0.0060   -1.1940    0.1810 c3        1 YI2     -0.091100
     17 C11         2.2180    1.8410   -0.4770 c2        1 YI2     -0.156200
     18 C09         3.4450    2.1130   -0.0140 ce        1 YI2     -0.127000
     19 C08         4.0580    1.5900    1.1990 ce        1 YI2     -0.058200
     20 C07         4.8690    2.3330    1.9840 cf        1 YI2     -0.125000
     21 C06         5.1980    3.7190    1.7470 cf        1 YI2     -0.163000
     22 C05         6.1970    4.3800    2.3660 c2        1 YI2     -0.094400
     23 C10         6.4730    5.8060    2.0660 c3        1 YI2     -0.069900
     24 C01         2.5910    3.0530    7.2860 c         1 YI2      0.572600
     25 O01         2.6490    2.3640    8.3070 o         1 YI2     -0.544100
     26 C04         7.0930    3.7500    3.3630 c3        1 YI2     -0.069900
     27 C03         4.5060    1.8060    6.2310 c         1 YI2      0.572600
     28 O02         5.3260    1.5680    5.3390 o         1 YI2     -0.544100
     29 C02         3.4900    2.8690    6.1310 ce        1 YI2     -0.344400
     30 C30         3.3730    3.6450    5.0410 c2        1 YI2     -0.061000
     31 C31        -0.1090    6.3840    6.1120 c         1 YI2      0.577700
     32 O04         0.8210    5.5910    5.9800 o         1 YI2     -0.544100
     33 H1          0.1910    1.4540    0.0500 hc        1 YI2      0.051700
     34 H2          1.3990    0.8930    1.2750 hc        1 YI2      0.051700
     35 H3          0.9430   -0.3070   -1.5440 hc        1 YI2      0.046700
     36 H4          3.3310    0.1100    2.5900 hc        1 YI2      0.090700
     37 H5          4.9010   -1.7620    1.8630 hc        1 YI2      0.077700
     38 H6          5.5880   -0.7120    0.5250 hc        1 YI2      0.077700
     39 H8          3.9580   -3.3820    0.1900 hc        1 YI2      0.041033
     40 H9          2.2410   -3.9420    0.2900 hc        1 YI2      0.041033
     41 H10         3.2610   -4.4320   -1.1250 hc        1 YI2      0.041033
     42 H11         3.4480   -0.2220   -4.1080 h1        1 YI2      0.092200
     43 H12         1.8470   -0.8810   -3.5620 h1        1 YI2      0.092200
     44 H13         0.2760   -4.4190   -1.2290 hc        1 YI2      0.029450
     45 H14        -0.5920   -3.2750   -2.3430 hc        1 YI2      0.029450
     46 H15        -1.3540   -4.8620   -1.8990 hc        1 YI2      0.029450
     47 H16         0.0970   -4.8240   -2.9900 hc        1 YI2      0.029450
     48 H17         4.2120   -4.1160   -3.6240 h4        1 YI2      0.178000
     49 H18         2.5340   -5.0480   -5.1610 hc        1 YI2      0.036033
     50 H19         1.3250   -2.2720   -5.8180 hc        1 YI2      0.040700
     51 H20         1.1650   -3.1580   -4.2390 hc        1 YI2      0.040700
     52 H21         1.0760   -4.7270   -6.1930 hc        1 YI2      0.036033
     53 H22         2.7160   -4.1570   -6.7270 hc        1 YI2      0.036033
     54 H23         4.8390   -2.1380   -5.5190 ho        1 YI2      0.411000
     55 H24         1.5970   -2.6150   -1.6440 h1        1 YI2      0.087700
     56 H26        -0.0700   -2.2210   -0.2570 hc        1 YI2      0.039367
     57 H27        -0.9690   -0.6630   -0.0140 hc        1 YI2      0.039367
     58 H28         0.1330   -1.2880    1.2840 hc        1 YI2      0.039367
     59 H29        -1.7140    1.1320   -1.8980 ha        1 YI2      0.000500
     60 H30        -1.1270    0.8470   -1.7140 ha        1 YI2      0.000500
     61 H31         1.8880    2.2950   -1.4280 ha        1 YI2      0.115000
     62 H32         4.0900    2.8030   -0.5890 ha        1 YI2      0.123000
     63 H33         4.5760    4.2490    1.0030 ha        1 YI2      0.122000
     64 H34         5.3220    1.8700    2.8840 ha        1 YI2      0.149000
     65 H35         5.7790    6.2110    1.2900 hc        1 YI2      0.046700
     66 H36         7.5220    5.9220    1.6960 hc        1 YI2      0.046700
     67 H37         6.3620    6.4210    2.9940 hc        1 YI2      0.046700
     68 H38         1.8410    3.8710    7.1730 h4        1 YI2      0.026700
     69 H39         6.5040    3.2110    4.1500 hc        1 YI2      0.046700
     70 H40         7.7600    3.0030    2.8640 hc        1 YI2      0.046700
     71 H41         7.7370    4.5130    3.8660 hc        1 YI2      0.046700
     72 H42         4.4860    1.2230    7.1810 h4        1 YI2      0.026700
     73 H43         4.0380    3.5170    4.1680 ha        1 YI2      0.146000
     74 H44         2.6130    4.4390    4.9640 ha        1 YI2      0.146000
     75 H45        -0.7390    6.4080    7.0260 h4        1 YI2     -0.015800
     76 H46        -0.3700    7.1220    5.3240 h4        1 YI2     -0.015800
     77 C23         2.9100   -1.1170   -3.7420 cy        1 YI2      0.006900
@<TRIPOS>BOND
     1    1    2 1   
     2    1   17 1   
     3    1   33 1   
     4    1   34 1   
     5    2   15 1   
     6    2   16 1   
     7    2   35 1   
     8    3    4 1   
     9    3    5 1   
    10    3   19 1   
    11    3   36 1   
    12    4    5 1   
    13    4   37 1   
    14    4   38 1   
    15    5   15 2   
    16    6   14 1   
    17    6   39 1   
    18    6   40 1   
    19    6   41 1   
    20    7    9 1   
    21    7   10 1   
    22    7   12 1   
    23    7   77 1   
    24    8   44 1   
    25    8   45 1   
    26    8   46 1   
    27    8   47 1   
    28    9   13 2   
    29    9   48 1   
    30   10   11 1   
    31   10   50 1   
    32   10   51 1   
    33   11   49 1   
    34   11   52 1   
    35   11   53 1   
    36   12   54 1   
    37   13   14 1   
    38   13   77 1   
    39   14   15 1   
    40   14   55 1   
    41   16   56 1   
    42   16   57 1   
    43   16   58 1   
    44   17   18 2   
    45   17   61 1   
    46   18   19 1   
    47   18   62 1   
    48   19   20 2   
    49   20   21 1   
    50   20   64 1   
    51   21   22 2   
    52   21   63 1   
    53   22   23 1   
    54   22   26 1   
    55   23   65 1   
    56   23   66 1   
    57   23   67 1   
    58   24   25 2   
    59   24   29 1   
    60   24   68 1   
    61   26   69 1   
    62   26   70 1   
    63   26   71 1   
    64   27   28 2   
    65   27   29 1   
    66   27   72 1   
    67   29   30 2   
    68   30   73 1   
    69   30   74 1   
    70   31   32 2   
    71   31   75 1   
    72   31   76 1   
    73   42   77 1   
    74   43   77 1   
    75   59   60 1   
@<TRIPOS>SUBSTRUCTURE
     1 YI2         1 TEMP              0 ****  ****    0 ROOT
