@<TRIPOS>MOLECULE
molecule
   85    87     1     0     0
SMALL
bcc


@<TRIPOS>ATOM
      1 O03          0.0000     0.0000     0.0000 oh         1 YI3      -0.603800
      2 C25          1.4300     0.0000     0.0000 c3         1 YI3       0.146800
      3 C26          1.9390     0.0000     1.4420 c3         1 YI3      -0.120100
      4 C27          1.9400    -1.2490    -0.7220 c3         1 YI3      -0.120100
      5 C24          1.9400     1.2500    -0.7210 c3         1 YI3      -0.065400
      6 C23          1.4300     1.2500    -2.1640 c3         1 YI3      -0.082400
      7 C22          1.9410     2.4990    -2.8840 c3         1 YI3      -0.081400
      8 C20          1.4310     2.5000    -4.3270 c3         1 YI3      -0.069700
      9 C21         -0.0940     2.6250    -4.3290 c3         1 YI3      -0.097100
     10 C17          2.0410     3.6810    -5.0840 c3         1 YI3      -0.054700
     11 C16          3.5840     3.5360    -5.1550 c3         1 YI3      -0.081400
     12 C15          3.9560     3.5580    -6.6640 c3         1 YI3      -0.078400
     13 C14          2.7780     4.3090    -7.2910 c3         1 YI3      -0.034500
     14 C13          1.5750     3.6800    -6.5310 c3         1 YI3      -0.059000
     15 C18          1.3850     2.2340    -6.9970 c3         1 YI3      -0.092100
     16 C12          0.3410     4.4740    -6.8910 c3         1 YI3      -0.066400
     17 C11          0.0360     4.2090    -8.3750 c3         1 YI3      -0.078400
     18 C09          1.2010     4.6150    -9.2740 c3         1 YI3      -0.032500
     19 C28          1.2930     6.1420    -9.3230 c3         1 YI3      -0.076400
     20 C29          0.0410     6.7060    -9.9990 c3         1 YI3      -0.084400
     21 C30          0.1330     8.2330   -10.0470 c3         1 YI3      -0.084400
     22 C31         -1.1180     8.7980   -10.7220 c3         1 YI3      -0.092100
     23 C08          2.5130     4.0520    -8.7460 c2         1 YI3      -0.091400
     24 C07          3.3620     3.3820    -9.5160 ce         1 YI3      -0.150000
     25 C06          3.0500     3.1620   -10.9370 ce         1 YI3      -0.133000
     26 C05          3.8460     2.4030   -11.6820 c2         1 YI3      -0.111400
     27 C10          3.6200     2.2720   -13.1720 c3         1 YI3      -0.048700
     28 C04          5.0050     1.6540   -11.0640 c3         1 YI3      -0.048700
     29 C03          6.2730     1.9700   -11.8640 c3         1 YI3       0.151100
     30 O02          7.3550     1.1760   -11.3770 oh         1 YI3      -0.607300
     31 C02          6.0330     1.6530   -13.3420 c3         1 YI3      -0.103400
     32 C01          4.9410     2.5640   -13.8930 c3         1 YI3       0.151100
     33 O01          5.3090     3.9300   -13.6840 oh         1 YI3      -0.607300
     34 H1          -0.3140    -0.5930     0.6620 ho         1 YI3       0.401000
     35 H2           1.5570     0.8710     1.9600 hc         1 YI3       0.041533
     36 H3           3.0220     0.0260     1.4430 hc         1 YI3       0.041533
     37 H4           1.6000    -0.8970     1.9450 hc         1 YI3       0.041533
     38 H5           1.3030    -1.4600    -1.5720 hc         1 YI3       0.041533
     39 H6           2.9540    -1.0790    -1.0640 hc         1 YI3       0.041533
     40 H7           1.9250    -2.0910    -0.0400 hc         1 YI3       0.041533
     41 H8           1.5770     2.1340    -0.2100 hc         1 YI3       0.047700
     42 H9           3.0230     1.2510    -0.7200 hc         1 YI3       0.047700
     43 H10          0.3470     1.2500    -2.1640 hc         1 YI3       0.052200
     44 H11          1.7920     0.3660    -2.6740 hc         1 YI3       0.052200
     45 H12          3.0240     2.4990    -2.8840 hc         1 YI3       0.040200
     46 H13          1.5800     3.3840    -2.3730 hc         1 YI3       0.040200
     47 H14          1.7170     1.5740    -4.8110 hc         1 YI3       0.058700
     48 H15         -0.3710     3.6680    -4.4240 hc         1 YI3       0.037367
     49 H16         -0.4910     2.2290    -3.4020 hc         1 YI3       0.037367
     50 H17         -0.5010     2.0670    -5.1640 hc         1 YI3       0.037367
     51 H18          1.7760     4.6170    -4.6070 hc         1 YI3       0.053700
     52 H19          4.0580     4.3650    -4.6440 hc         1 YI3       0.043200
     53 H20          3.8890     2.5950    -4.7120 hc         1 YI3       0.043200
     54 H21          4.0190     2.5510    -7.0570 hc         1 YI3       0.047200
     55 H22          4.8810     4.0980    -6.8220 hc         1 YI3       0.047200
     56 H23          2.8460     5.3720    -7.0910 hc         1 YI3       0.066700
     57 H24          0.3920     1.8950    -6.7270 hc         1 YI3       0.040033
     58 H25          1.5040     2.1830    -8.0720 hc         1 YI3       0.040033
     59 H26          2.1240     1.6010    -6.5210 hc         1 YI3       0.040033
     60 H27          0.5270     5.5300    -6.7380 hc         1 YI3       0.045200
     61 H28         -0.4940     4.1500    -6.2820 hc         1 YI3       0.045200
     62 H29         -0.1610     3.1530    -8.5100 hc         1 YI3       0.045200
     63 H30         -0.8420     4.7760    -8.6590 hc         1 YI3       0.045200
     64 H31          1.0280     4.2320   -10.2730 hc         1 YI3       0.057700
     65 H32          1.3660     6.5320    -8.3150 hc         1 YI3       0.046700
     66 H33          2.1700     6.4330    -9.8880 hc         1 YI3       0.046700
     67 H34         -0.0320     6.3160   -11.0070 hc         1 YI3       0.041700
     68 H35         -0.8360     6.4150    -9.4340 hc         1 YI3       0.041700
     69 H36          1.0100     8.5240   -10.6120 hc         1 YI3       0.040200
     70 H37          0.2060     8.6220    -9.0390 hc         1 YI3       0.040200
     71 H38         -1.9940     8.5260   -10.1450 hc         1 YI3       0.032367
     72 H39         -1.2040     8.3910   -11.7230 hc         1 YI3       0.032367
     73 H40         -1.0430     9.8770   -10.7770 hc         1 YI3       0.032367
     74 H41          4.3030     3.0320    -9.1080 ha         1 YI3       0.137000
     75 H42          2.2270     3.6950   -11.3970 ha         1 YI3       0.131000
     76 H43          2.8680     2.9850   -13.4890 hc         1 YI3       0.056950
     77 H44          3.2950     1.2650   -13.4030 hc         1 YI3       0.056950
     78 H45          4.8090     0.5890   -11.1000 hc         1 YI3       0.056950
     79 H46          5.1360     1.9710   -10.0360 hc         1 YI3       0.056950
     80 H47          6.5130     3.0210   -11.7570 h1         1 YI3       0.042700
     81 H48          8.0970     1.7300   -11.1980 ho         1 YI3       0.400000
     82 H49          6.9490     1.8150   -13.8970 hc         1 YI3       0.054200
     83 H50          5.7230     0.6200   -13.4420 hc         1 YI3       0.054200
     84 H51          4.8190     2.3770   -14.9530 h1         1 YI3       0.042700
     85 H52          5.3270     4.3810   -14.5120 ho         1 YI3       0.400000
@<TRIPOS>BOND
     1    33    32 1
     2    31    32 1
     3    31    29 1
     4    32    27 1
     5    29    30 1
     6    29    28 1
     7    27    26 1
     8    28    26 1
     9    26    25 2
    10    25    24 1
    11    24    23 2
    12    12    13 1
    13    12    11 1
    14    23    13 1
    15    23    18 1
    16    15    14 1
    17    13    14 1
    18    11    10 1
    19    18    19 1
    20    18    17 1
    21    20    21 1
    22    20    19 1
    23    21    22 1
    24    14    10 1
    25    14    16 1
    26     4     2 1
    27     5     2 1
    28     5     6 1
    29    17    16 1
    30    10     8 1
    31     7     6 1
    32     7     8 1
    33     2     3 1
    34     2     1 1
    35     8     9 1
    36     1    34 1
    37     3    35 1
    38     3    36 1
    39     3    37 1
    40     4    38 1
    41     4    39 1
    42     4    40 1
    43     5    41 1
    44     5    42 1
    45     6    43 1
    46     6    44 1
    47     7    45 1
    48     7    46 1
    49     8    47 1
    50     9    48 1
    51     9    49 1
    52     9    50 1
    53    10    51 1
    54    11    52 1
    55    11    53 1
    56    12    54 1
    57    12    55 1
    58    13    56 1
    59    15    57 1
    60    15    58 1
    61    15    59 1
    62    16    60 1
    63    16    61 1
    64    17    62 1
    65    17    63 1
    66    18    64 1
    67    19    65 1
    68    19    66 1
    69    20    67 1
    70    20    68 1
    71    21    69 1
    72    21    70 1
    73    22    71 1
    74    22    72 1
    75    22    73 1
    76    24    74 1
    77    25    75 1
    78    27    76 1
    79    27    77 1
    80    28    78 1
    81    28    79 1
    82    29    80 1
    83    30    81 1
    84    31    82 1
    85    31    83 1
    86    32    84 1
    87    33    85 1
@<TRIPOS>SUBSTRUCTURE
     1 YI3         1 TEMP              0 ****  ****    0 ROOT
