@<TRIPOS>MOLECULE
YI3
   85    87     1     0     0
SMALL
bcc


@<TRIPOS>ATOM
      1 O03         0.3090    0.0200    0.4040 oh        1 YI3     -0.597800
      2 C25         1.7300    0.1470    0.3160 c3        1 YI3      0.147800
      3 C26         2.3060    0.4130    1.7040 c3        1 YI3     -0.123100
      4 C27         2.3320   -1.1290   -0.2580 c3        1 YI3     -0.123100
      5 C24         1.9930    1.3560   -0.5870 c3        1 YI3     -0.064400
      6 C23         1.4710    1.1650   -1.9950 c3        1 YI3     -0.079400
      7 C22         1.5970    2.4440   -2.7960 c3        1 YI3     -0.079400
      8 C20         1.0900    2.2750   -4.2270 c3        1 YI3     -0.054700
      9 C21        -0.4250    2.3520   -4.2350 c3        1 YI3     -0.092100
     10 C17         1.7140    3.3290   -5.1350 c3        1 YI3     -0.053700
     11 C16         3.2540    3.2370   -5.1540 c3        1 YI3     -0.078400
     12 C15         3.7250    3.5520   -6.5750 c3        1 YI3     -0.073400
     13 C14         2.4830    4.0810   -7.2780 c3        1 YI3     -0.038500
     14 C13         1.3190    3.2810   -6.6300 c3        1 YI3     -0.039000
     15 C18         1.2890    1.8500   -7.1360 c3        1 YI3     -0.083100
     16 C12         0.0350    4.0110   -6.9940 c3        1 YI3     -0.066400
     17 C11        -0.1250    4.1030   -8.5010 c3        1 YI3     -0.070400
     18 C09         1.0840    4.6510   -9.2570 c3        1 YI3     -0.030500
     19 C28         1.1380    6.1770   -9.1910 c3        1 YI3     -0.076400
     20 C29         0.2160    6.8200  -10.2060 c3        1 YI3     -0.079400
     21 C30         0.2610    8.3310  -10.1040 c3        1 YI3     -0.080400
     22 C31        -0.6460    8.9790  -11.1180 c3        1 YI3     -0.093100
     23 C08         2.3830    4.0770   -8.7600 c2        1 YI3     -0.068400
     24 C07         3.3710    3.6510   -9.5650 ce        1 YI3     -0.155000
     25 C06         3.3460    3.7010  -11.0110 ce        1 YI3     -0.118000
     26 C05         3.9810    2.8490  -11.8350 c2        1 YI3     -0.127400
     27 C10         3.8880    3.0070  -13.3150 c3        1 YI3     -0.060700
     28 C04         4.7650    1.6690  -11.3820 c3        1 YI3     -0.060700
     29 C03         6.1500    1.6580  -12.0280 c3        1 YI3      0.146600
     30 O02         6.7660    0.4410  -11.6240 oh        1 YI3     -0.597800
     31 C02         6.0580    1.7430  -13.5470 c3        1 YI3     -0.148400
     32 C01         5.2530    2.9550  -13.9990 c3        1 YI3      0.146600
     33 O01         5.9790    4.1580  -13.8080 oh        1 YI3     -0.597800
     34 H1          0.1340   -0.7390    0.9710 ho        1 YI3      0.397000
     35 H2          2.0920   -0.4460    2.3840 hc        1 YI3      0.042367
     36 H3          3.4100    0.5540    1.6390 hc        1 YI3      0.042367
     37 H4          1.8460    1.3320    2.1390 hc        1 YI3      0.042367
     38 H5          2.2630   -1.9590    0.4860 hc        1 YI3      0.042367
     39 H6          3.4040   -0.9640   -0.5150 hc        1 YI3      0.042367
     40 H7          1.7780   -1.4330   -1.1780 hc        1 YI3      0.042367
     41 H8          3.0980    1.5420   -0.6090 hc        1 YI3      0.047200
     42 H9          1.4980    2.2510   -0.1260 hc        1 YI3      0.047200
     43 H10         0.3980    0.8380   -1.9450 hc        1 YI3      0.048700
     44 H11         2.0460    0.3470   -2.5040 hc        1 YI3      0.048700
     45 H12         2.6730    2.7590   -2.8000 hc        1 YI3      0.040200
     46 H13         1.0170    3.2640   -2.2940 hc        1 YI3      0.040200
     47 H14         1.3990    1.2560   -4.5960 hc        1 YI3      0.050700
     48 H15        -0.7660    3.4120   -4.1410 hc        1 YI3      0.035033
     49 H16        -0.8500    1.7680   -3.3830 hc        1 YI3      0.035033
     50 H17        -0.8380    1.9290   -5.1820 hc        1 YI3      0.035033
     51 H18         1.4190    4.3390   -4.7370 hc        1 YI3      0.046700
     52 H19         3.5900    2.2130   -4.8570 hc        1 YI3      0.042200
     53 H20         3.6900    3.9650   -4.4260 hc        1 YI3      0.042200
     54 H21         4.5470    4.3080   -6.5780 hc        1 YI3      0.044200
     55 H22         4.1070    2.6260   -7.0720 hc        1 YI3      0.044200
     56 H23         2.3640    5.1630   -6.9650 hc        1 YI3      0.057700
     57 H24         2.1750    1.2850   -6.7560 hc        1 YI3      0.037700
     58 H25         0.3610    1.3320   -6.7920 hc        1 YI3      0.037700
     59 H26         1.3150    1.8280   -8.2520 hc        1 YI3      0.037700
     60 H27        -0.8530    3.4780   -6.5670 hc        1 YI3      0.043200
     61 H28         0.0520    5.0410   -6.5490 hc        1 YI3      0.043200
     62 H29        -1.0120    4.7520   -8.7290 hc        1 YI3      0.042200
     63 H30        -0.3540    3.0790   -8.9000 hc        1 YI3      0.042200
     64 H31         0.9490    4.3550  -10.3380 hc        1 YI3      0.053700
     65 H32         2.1890    6.5200   -9.3830 hc        1 YI3      0.045200
     66 H33         0.8600    6.5170   -8.1590 hc        1 YI3      0.045200
     67 H34         0.5170    6.5060  -11.2400 hc        1 YI3      0.039700
     68 H35        -0.8360    6.4660  -10.0460 hc        1 YI3      0.039700
     69 H36        -0.0420    8.6450   -9.0710 hc        1 YI3      0.039200
     70 H37         1.3150    8.6840  -10.2600 hc        1 YI3      0.039200
     71 H38        -0.5980   10.0910  -11.0250 hc        1 YI3      0.032700
     72 H39        -0.3430    8.6980  -12.1550 hc        1 YI3      0.032700
     73 H40        -1.7040    8.6580  -10.9630 hc        1 YI3      0.032700
     74 H41         4.2950    3.2440   -9.1150 ha        1 YI3      0.129000
     75 H42         2.7580    4.5310  -11.4470 ha        1 YI3      0.125000
     76 H43         3.2550    2.1740  -13.7250 hc        1 YI3      0.063200
     77 H44         3.3930    3.9780  -13.5820 hc        1 YI3      0.063200
     78 H45         4.8860    1.6480  -10.2680 hc        1 YI3      0.063200
     79 H46         4.2200    0.7290  -11.6720 hc        1 YI3      0.063200
     80 H47         6.7580    2.5240  -11.6390 h1        1 YI3      0.053200
     81 H48         7.6200    0.4010  -12.0690 ho        1 YI3      0.401500
     82 H49         5.5720    0.8130  -13.9400 hc        1 YI3      0.058700
     83 H50         7.0900    1.8060  -13.9800 hc        1 YI3      0.058700
     84 H51         5.1100    2.9120  -15.1180 h1        1 YI3      0.053200
     85 H52         6.0370    4.3110  -12.8570 ho        1 YI3      0.401500
@<TRIPOS>BOND
     1    1    2 1   
     2    1   34 1   
     3    2    3 1   
     4    2    4 1   
     5    2    5 1   
     6    3   35 1   
     7    3   36 1   
     8    3   37 1   
     9    4   38 1   
    10    4   39 1   
    11    4   40 1   
    12    5    6 1   
    13    5   41 1   
    14    5   42 1   
    15    6    7 1   
    16    6   43 1   
    17    6   44 1   
    18    7    8 1   
    19    7   45 1   
    20    7   46 1   
    21    8    9 1   
    22    8   10 1   
    23    8   47 1   
    24    9   48 1   
    25    9   49 1   
    26    9   50 1   
    27   10   11 1   
    28   10   14 1   
    29   10   51 1   
    30   11   12 1   
    31   11   52 1   
    32   11   53 1   
    33   12   13 1   
    34   12   54 1   
    35   12   55 1   
    36   13   14 1   
    37   13   23 1   
    38   13   56 1   
    39   14   15 1   
    40   14   16 1   
    41   15   57 1   
    42   15   58 1   
    43   15   59 1   
    44   16   17 1   
    45   16   60 1   
    46   16   61 1   
    47   17   18 1   
    48   17   62 1   
    49   17   63 1   
    50   18   19 1   
    51   18   23 1   
    52   18   64 1   
    53   19   20 1   
    54   19   65 1   
    55   19   66 1   
    56   20   21 1   
    57   20   67 1   
    58   20   68 1   
    59   21   22 1   
    60   21   69 1   
    61   21   70 1   
    62   22   71 1   
    63   22   72 1   
    64   22   73 1   
    65   23   24 2   
    66   24   25 1   
    67   24   74 1   
    68   25   26 2   
    69   25   75 1   
    70   26   27 1   
    71   26   28 1   
    72   27   32 1   
    73   27   76 1   
    74   27   77 1   
    75   28   29 1   
    76   28   78 1   
    77   28   79 1   
    78   29   30 1   
    79   29   31 1   
    80   29   80 1   
    81   30   81 1   
    82   31   32 1   
    83   31   82 1   
    84   31   83 1   
    85   32   33 1   
    86   32   84 1   
    87   33   85 1   
@<TRIPOS>SUBSTRUCTURE
     1 YI3         1 TEMP              0 ****  ****    0 ROOT
