@<TRIPOS>MOLECULE
molecule
   85    87     1     0     0
SMALL
bcc


@<TRIPOS>ATOM
      1 O03          0.0000     0.0000     0.0000 oh         1 YI4      -0.603800
      2 C25          1.4290     0.0000     0.0000 c3         1 YI4       0.146800
      3 C26          1.9390     0.0000     1.4420 c3         1 YI4      -0.120100
      4 C27          1.9390    -1.2490    -0.7220 c3         1 YI4      -0.120100
      5 C24          1.9380     1.2500    -0.7210 c3         1 YI4      -0.065400
      6 C23          1.5330     2.4950     0.0700 c3         1 YI4      -0.083400
      7 C22          2.0430     3.7450    -0.6510 c3         1 YI4      -0.081400
      8 C20          1.6380     4.9910     0.1400 c3         1 YI4      -0.070700
      9 C21          2.3480     4.9870     1.4950 c3         1 YI4      -0.095100
     10 C17          2.0370     6.2430    -0.6420 c3         1 YI4      -0.054700
     11 C16          1.2730     6.3030    -1.9910 c3         1 YI4      -0.081400
     12 C15          0.5060     7.6550    -1.9990 c3         1 YI4      -0.077400
     13 C14          1.3220     8.5130    -1.0300 c3         1 YI4      -0.035500
     14 C13          1.6110     7.4950     0.1110 c3         1 YI4      -0.060000
     15 C18          0.3140     7.2080     0.8700 c3         1 YI4      -0.093100
     16 C12          2.5990     8.1370     1.0580 c3         1 YI4      -0.066400
     17 C11          1.8780     9.3010     1.7590 c3         1 YI4      -0.076400
     18 C09          1.3640    10.3340     0.7580 c3         1 YI4      -0.027500
     19 C28          2.5500    11.1070     0.1780 c3         1 YI4      -0.046200
     20 C29          3.2140    11.9030     1.2710 c2         1 YI4      -0.169200
     21 C30          4.4950    11.7580     1.5030 c2         1 YI4      -0.227000
     22 C08          0.6070     9.6570    -0.3760 c2         1 YI4      -0.091400
     23 C07         -0.6040    10.0510    -0.7580 ce         1 YI4      -0.150000
     24 C06         -1.2570    11.1810    -0.0780 ce         1 YI4      -0.133000
     25 C05         -2.5160    11.4920    -0.3690 c2         1 YI4      -0.110400
     26 C10         -3.1450    12.7490     0.1870 c3         1 YI4      -0.053700
     27 C01         -3.6840    13.5850    -0.9810 c3         1 YI4       0.191800
     28 O01         -2.5910    14.1320    -1.7230 oh         1 YI4      -0.601800
     29 C04         -3.3410    10.6000    -1.2680 c3         1 YI4      -0.053700
     30 C03         -3.8790    11.4410    -2.4330 c3         1 YI4       0.191800
     31 O02         -4.8590    10.6910    -3.1540 oh         1 YI4      -0.601800
     32 C02         -4.5120    12.6900    -1.8750 c2         1 YI4      -0.138400
     33 C32         -5.7520    12.9970    -2.1620 c2         1 YI4      -0.141200
     34 C33         -6.3170    14.3270    -1.7340 c3         1 YI4       0.166600
     35 O04         -7.0680    14.8920    -2.8110 oh         1 YI4      -0.602800
     36 H1          -0.3140    -0.8690     0.1880 ho         1 YI4       0.401000
     37 H2           1.3290     0.6650     2.0410 hc         1 YI4       0.041367
     38 H3           2.9680     0.3390     1.4610 hc         1 YI4       0.041367
     39 H4           1.8820    -1.0040     1.8460 hc         1 YI4       0.041367
     40 H5           3.0220    -1.2420    -0.7340 hc         1 YI4       0.041367
     41 H6           1.5900    -2.1340    -0.2040 hc         1 YI4       0.041367
     42 H7           1.5670    -1.2560    -1.7390 hc         1 YI4       0.041367
     43 H8           1.5050     1.2960    -1.7130 hc         1 YI4       0.048700
     44 H9           3.0180     1.2070    -0.7990 hc         1 YI4       0.048700
     45 H10          0.4530     2.5380     0.1490 hc         1 YI4       0.051700
     46 H11          1.9660     2.4500     1.0630 hc         1 YI4       0.051700
     47 H12          3.1220     3.7020    -0.7300 hc         1 YI4       0.040700
     48 H13          1.6100     3.7910    -1.6430 hc         1 YI4       0.040700
     49 H14          0.5650     4.9880     0.2940 hc         1 YI4       0.061700
     50 H15          1.6900     5.4040     2.2490 hc         1 YI4       0.035700
     51 H16          3.2490     5.5850     1.4320 hc         1 YI4       0.035700
     52 H17          2.6070     3.9710     1.7650 hc         1 YI4       0.035700
     53 H18          3.1060     6.2590    -0.8170 hc         1 YI4       0.052700
     54 H19          0.5730     5.4790    -2.0570 hc         1 YI4       0.045200
     55 H20          1.9750     6.2690    -2.8160 hc         1 YI4       0.045200
     56 H21          0.5100     8.0900    -2.9910 hc         1 YI4       0.046700
     57 H22         -0.5050     7.5220    -1.6340 hc         1 YI4       0.046700
     58 H23          2.2450     8.8450    -1.4900 hc         1 YI4       0.066700
     59 H24         -0.2750     8.1150     0.9350 hc         1 YI4       0.040700
     60 H25         -0.2520     6.4480     0.3440 hc         1 YI4       0.040700
     61 H26          0.5480     6.8570     1.8670 hc         1 YI4       0.040700
     62 H27          2.9260     7.4120     1.7930 hc         1 YI4       0.044700
     63 H28          3.4480     8.5130     0.5010 hc         1 YI4       0.044700
     64 H29          2.5700     9.7840     2.4380 hc         1 YI4       0.046700
     65 H30          1.0400     8.9080     2.3210 hc         1 YI4       0.046700
     66 H31          0.6990    11.0210     1.2670 hc         1 YI4       0.058700
     67 H32          2.1990    11.7790    -0.5960 hc         1 YI4       0.052700
     68 H33          3.2640    10.4100    -0.2450 hc         1 YI4       0.052700
     69 H35          2.6310    12.5970     1.8660 ha         1 YI4       0.121000
     70 H36          4.9720    12.3310     2.2890 ha         1 YI4       0.111000
     71 H37          5.0780    11.0650     0.9080 ha         1 YI4       0.111000
     72 H39         -1.0920     9.5660    -1.5940 ha         1 YI4       0.136000
     73 H40         -0.6760    11.8320     0.5630 ha         1 YI4       0.131000
     74 H41         -2.4000    13.3190     0.7280 hc         1 YI4       0.057700
     75 H42         -3.9600    12.4840     0.8500 hc         1 YI4       0.057700
     76 H43         -4.3050    14.3850    -0.5960 h1         1 YI4       0.050200
     77 H44         -2.5450    15.0620    -1.5740 ho         1 YI4       0.402500
     78 H45         -2.7210     9.8000    -1.6540 hc         1 YI4       0.057700
     79 H46         -4.1700    10.1860    -0.7060 hc         1 YI4       0.057700
     80 H47         -3.0630    11.7120    -3.0920 h1         1 YI4       0.050200
     81 H48         -4.5030    10.4250    -3.9850 ho         1 YI4       0.402500
     82 H49         -6.3340    12.3470    -2.8040 ha         1 YI4       0.165000
     83 H50         -6.9640    14.1860    -0.8770 h1         1 YI4       0.025200
     84 H51         -5.5070    14.9950    -1.4690 h1         1 YI4       0.025200
     85 H52         -7.6430    15.5610    -2.4770 ho         1 YI4       0.401000
@<TRIPOS>BOND
     1    35    34 1
     2    34    33 1
     3    33    32 2
     4    28    27 1
     5    32    27 1
     6    32    30 1
     7    27    26 1
     8    30    31 1
     9    30    29 1
    10    26    25 1
    11    29    25 1
    12    25    24 2
    13    24    23 1
    14    23    22 2
    15    12    13 1
    16    12    11 1
    17    22    13 1
    18    22    18 1
    19    13    14 1
    20    15    14 1
    21    11    10 1
    22    18    19 1
    23    18    17 1
    24    19    20 1
    25    14    10 1
    26    14    16 1
    27     4     2 1
    28    20    21 2
    29    10     8 1
    30     5     2 1
    31     5     6 1
    32    17    16 1
    33     7     6 1
    34     7     8 1
    35     2     1 1
    36     2     3 1
    37     8     9 1
    38     1    36 1
    39     3    37 1
    40     3    38 1
    41     3    39 1
    42     4    40 1
    43     4    41 1
    44     4    42 1
    45     5    43 1
    46     5    44 1
    47     6    45 1
    48     6    46 1
    49     7    47 1
    50     7    48 1
    51     8    49 1
    52     9    50 1
    53     9    51 1
    54     9    52 1
    55    10    53 1
    56    11    54 1
    57    11    55 1
    58    12    56 1
    59    12    57 1
    60    13    58 1
    61    15    59 1
    62    15    60 1
    63    15    61 1
    64    16    62 1
    65    16    63 1
    66    17    64 1
    67    17    65 1
    68    18    66 1
    69    19    67 1
    70    19    68 1
    71    20    69 1
    72    21    70 1
    73    21    71 1
    74    23    72 1
    75    24    73 1
    76    26    74 1
    77    26    75 1
    78    27    76 1
    79    28    77 1
    80    29    78 1
    81    29    79 1
    82    30    80 1
    83    31    81 1
    84    33    82 1
    85    34    83 1
    86    34    84 1
    87    35    85 1
@<TRIPOS>SUBSTRUCTURE
     1 YI4         1 TEMP              0 ****  ****    0 ROOT
