@<TRIPOS>MOLECULE
YI4
   85    87     1     0     0
SMALL
bcc


@<TRIPOS>ATOM
      1 O03         0.2050    0.0930   -0.9700 oh        1 YI4     -0.597800
      2 C25         1.5140   -0.1190   -0.4380 c3        1 YI4      0.147800
      3 C26         1.4220   -0.5030    1.0340 c3        1 YI4     -0.123100
      4 C27         2.2120   -1.2280   -1.2200 c3        1 YI4     -0.123100
      5 C24         2.2700    1.1990   -0.6340 c3        1 YI4     -0.064400
      6 C23         1.6560    2.3510    0.1320 c3        1 YI4     -0.079400
      7 C22         2.3140    3.6620   -0.2450 c3        1 YI4     -0.079400
      8 C20         1.7580    4.8320    0.5660 c3        1 YI4     -0.055700
      9 C21         2.4260    4.8620    1.9270 c3        1 YI4     -0.091100
     10 C17         1.9580    6.1410   -0.1910 c3        1 YI4     -0.053700
     11 C16         1.2560    6.1280   -1.5640 c3        1 YI4     -0.079400
     12 C15         0.6950    7.5280   -1.8170 c3        1 YI4     -0.074400
     13 C14         1.3150    8.3880   -0.7250 c3        1 YI4     -0.038500
     14 C13         1.4270    7.4250    0.4890 c3        1 YI4     -0.040000
     15 C18         0.0660    7.1790    1.1190 c3        1 YI4     -0.083100
     16 C12         2.3720    8.0850    1.4800 c3        1 YI4     -0.066400
     17 C11         1.8430    9.4420    1.9080 c3        1 YI4     -0.071400
     18 C09         1.4490   10.3810    0.7700 c3        1 YI4     -0.026500
     19 C28         2.6720   11.0970    0.1960 c3        1 YI4     -0.049200
     20 C29         3.2580   12.0640    1.1570 c2        1 YI4     -0.164200
     21 C30         4.5660   12.2450    1.3210 c2        1 YI4     -0.225000
     22 C08         0.7060    9.6850   -0.3380 c2        1 YI4     -0.069400
     23 C07        -0.3720   10.2030   -0.9520 ce        1 YI4     -0.154000
     24 C06        -0.9500   11.4980   -0.6640 ce        1 YI4     -0.120000
     25 C05        -2.2490   11.8210   -0.7970 c2        1 YI4     -0.125400
     26 C10        -2.7290   13.1960   -0.4750 c3        1 YI4     -0.057200
     27 C01        -3.6190   13.7850   -1.5740 c3        1 YI4      0.185300
     28 O01        -2.8510   14.2070   -2.6890 oh        1 YI4     -0.592300
     29 C04        -3.3150   10.8670   -1.2020 c3        1 YI4     -0.057200
     30 C03        -4.1600   11.4500   -2.3390 c3        1 YI4      0.185300
     31 O02        -5.1770   10.4930   -2.6020 oh        1 YI4     -0.592300
     32 C02        -4.6900   12.8060   -1.9700 c2        1 YI4     -0.196400
     33 C32        -5.9940   13.1030   -1.9840 c2        1 YI4     -0.133200
     34 C33        -6.5560   14.4420   -1.6580 c3        1 YI4      0.157600
     35 O04        -7.9610   14.3740   -1.8670 oh        1 YI4     -0.599800
     36 H1         -0.2790   -0.7320   -0.8500 ho        1 YI4      0.397000
     37 H2          1.0070   -1.5340    1.1400 hc        1 YI4      0.042200
     38 H3          2.4330   -0.4720    1.5020 hc        1 YI4      0.042200
     39 H4          0.7490    0.2060    1.5720 hc        1 YI4      0.042200
     40 H5          2.2560   -0.9610   -2.3030 hc        1 YI4      0.042200
     41 H6          3.2490   -1.3720   -0.8370 hc        1 YI4      0.042200
     42 H7          1.6520   -2.1880   -1.1130 hc        1 YI4      0.042200
     43 H8          3.3320    1.0450   -0.3110 hc        1 YI4      0.047200
     44 H9          2.2720    1.4400   -1.7300 hc        1 YI4      0.047200
     45 H10         0.5570    2.3970   -0.0930 hc        1 YI4      0.048700
     46 H11         1.7640    2.1710    1.2340 hc        1 YI4      0.048700
     47 H12         2.1560    3.8400   -1.3410 hc        1 YI4      0.040200
     48 H13         3.4220    3.5920   -0.0810 hc        1 YI4      0.040200
     49 H14         0.6520    4.6690    0.7110 hc        1 YI4      0.053700
     50 H15         2.4960    3.8300    2.3500 hc        1 YI4      0.033367
     51 H16         1.8390    5.4870    2.6430 hc        1 YI4      0.033367
     52 H17         3.4580    5.2820    1.8510 hc        1 YI4      0.033367
     53 H18         3.0640    6.2750   -0.3530 hc        1 YI4      0.045700
     54 H19         1.9840    5.8470   -2.3640 hc        1 YI4      0.044200
     55 H20         0.4280    5.3750   -1.5750 hc        1 YI4      0.044200
     56 H21        -0.4210    7.5200   -1.7390 hc        1 YI4      0.044700
     57 H22         0.9660    7.9020   -2.8340 hc        1 YI4      0.044700
     58 H23         2.3710    8.6300   -1.0600 hc        1 YI4      0.056700
     59 H24         0.1750    6.6250    2.0820 hc        1 YI4      0.037700
     60 H25        -0.5780    6.5790    0.4310 hc        1 YI4      0.037700
     61 H26        -0.4510    8.1480    1.3240 hc        1 YI4      0.037700
     62 H27         3.3840    8.2010    1.0100 hc        1 YI4      0.042700
     63 H28         2.4980    7.4420    2.3890 hc        1 YI4      0.042700
     64 H29         2.6240    9.9540    2.5310 hc        1 YI4      0.044200
     65 H30         0.9450    9.2860    2.5630 hc        1 YI4      0.044200
     66 H31         0.7720   11.1650    1.2200 hc        1 YI4      0.052700
     67 H32         3.4370   10.3360   -0.1140 hc        1 YI4      0.052700
     68 H33         2.3620   11.6580   -0.7280 hc        1 YI4      0.052700
     69 H35         2.5260   12.6560    1.7320 ha        1 YI4      0.118000
     70 H36         5.3210   11.6700    0.7680 ha        1 YI4      0.111500
     71 H37         4.9710   12.9860    2.0230 ha        1 YI4      0.111500
     72 H39        -0.8620    9.6270   -1.7580 ha        1 YI4      0.130000
     73 H40        -0.2360   12.2710   -0.3230 ha        1 YI4      0.125000
     74 H41        -1.8650   13.8930   -0.3130 hc        1 YI4      0.065200
     75 H42        -3.3230   13.1540    0.4770 hc        1 YI4      0.065200
     76 H43        -4.0770   14.7470   -1.1980 h1        1 YI4      0.055200
     77 H44        -2.3530   13.4420   -3.0040 ho        1 YI4      0.404000
     78 H45        -3.9820   10.6570   -0.3230 hc        1 YI4      0.065200
     79 H46        -2.8940    9.8840   -1.5390 hc        1 YI4      0.065200
     80 H47        -3.5200   11.5650   -3.2640 h1        1 YI4      0.055200
     81 H48        -5.6750   10.8160   -3.3620 ho        1 YI4      0.404000
     82 H49        -6.7530   12.3410   -2.2380 ha        1 YI4      0.151000
     83 H50        -6.3480   14.7080   -0.5840 h1        1 YI4      0.036700
     84 H51        -6.1100   15.2320   -2.3220 h1        1 YI4      0.036700
     85 H52        -8.3060   15.2550   -1.6820 ho        1 YI4      0.403000
@<TRIPOS>BOND
     1    1    2 1   
     2    1   36 1   
     3    2    3 1   
     4    2    4 1   
     5    2    5 1   
     6    3   37 1   
     7    3   38 1   
     8    3   39 1   
     9    4   40 1   
    10    4   41 1   
    11    4   42 1   
    12    5    6 1   
    13    5   43 1   
    14    5   44 1   
    15    6    7 1   
    16    6   45 1   
    17    6   46 1   
    18    7    8 1   
    19    7   47 1   
    20    7   48 1   
    21    8    9 1   
    22    8   10 1   
    23    8   49 1   
    24    9   50 1   
    25    9   51 1   
    26    9   52 1   
    27   10   11 1   
    28   10   14 1   
    29   10   53 1   
    30   11   12 1   
    31   11   54 1   
    32   11   55 1   
    33   12   13 1   
    34   12   56 1   
    35   12   57 1   
    36   13   14 1   
    37   13   22 1   
    38   13   58 1   
    39   14   15 1   
    40   14   16 1   
    41   15   59 1   
    42   15   60 1   
    43   15   61 1   
    44   16   17 1   
    45   16   62 1   
    46   16   63 1   
    47   17   18 1   
    48   17   64 1   
    49   17   65 1   
    50   18   19 1   
    51   18   22 1   
    52   18   66 1   
    53   19   20 1   
    54   19   67 1   
    55   19   68 1   
    56   20   21 2   
    57   20   69 1   
    58   21   70 1   
    59   21   71 1   
    60   22   23 2   
    61   23   24 1   
    62   23   72 1   
    63   24   25 2   
    64   24   73 1   
    65   25   26 1   
    66   25   29 1   
    67   26   27 1   
    68   26   74 1   
    69   26   75 1   
    70   27   28 1   
    71   27   32 1   
    72   27   76 1   
    73   28   77 1   
    74   29   30 1   
    75   29   78 1   
    76   29   79 1   
    77   30   31 1   
    78   30   32 1   
    79   30   80 1   
    80   31   81 1   
    81   32   33 2   
    82   33   34 1   
    83   33   82 1   
    84   34   35 1   
    85   34   83 1   
    86   34   84 1   
    87   35   85 1   
@<TRIPOS>SUBSTRUCTURE
     1 YI4         1 TEMP              0 ****  ****    0 ROOT
