@<TRIPOS>MOLECULE
molecule
   37    39     1     0     0
SMALL
bcc


@<TRIPOS>ATOM
      1 N1           0.0000     0.0000     0.0000 nc         1 YI5      -0.177100
      2 N2           1.2720     0.0000     0.0000 nd         1 YI5      -0.325000
      3 C3           1.9310     0.0000     1.1470 cd         1 YI5       0.371800
      4 C4           1.0640    -0.0010     2.2330 cc         1 YI5      -0.083400
      5 C6           3.4090     0.0010     1.2580 ca         1 YI5      -0.135500
      6 C7           1.3960    -0.0010     3.6730 ca         1 YI5      -0.018000
      7 C12          0.3840     0.1360     4.6250 ca         1 YI5      -0.179000
      8 C13          0.6990     0.1340     5.9710 ca         1 YI5       0.118100
      9 C14          2.0250    -0.0030     6.3750 ca         1 YI5       0.131100
     10 C15          3.0310    -0.1390     5.4300 ca         1 YI5      -0.189000
     11 C16          2.7220    -0.1450     4.0850 ca         1 YI5      -0.107000
     12 C21          4.1450    -1.1090     0.8280 ca         1 YI5       0.163100
     13 C22          5.5260    -1.1020     0.9350 ca         1 YI5      -0.222000
     14 C23          6.1760     0.0010     1.4680 ca         1 YI5       0.147100
     15 C24          5.4460     1.1040     1.8950 ca         1 YI5      -0.024600
     16 C25          4.0690     1.1090     1.7860 ca         1 YI5      -0.069000
     17 O29          7.5310     0.0050     1.5730 oh         1 YI5      -0.508100
     18 O30          3.5070    -2.1890     0.3070 oh         1 YI5      -0.494100
     19 O33          2.3350    -0.0030     7.6990 os         1 YI5      -0.310900
     20 S1          -0.5360    -0.0010     1.4710 ss         1 YI5       0.175200
     21 C34          3.7140    -0.1490     8.0440 c3         1 YI5       0.125700
     22 Cl           6.2660     2.4800     2.5610 cl         1 YI5      -0.083400
     23 CAB         -1.6210     0.4060     6.4150 c3         1 YI5       0.125700
     24 OAN         -0.2850     0.2680     6.9000 os         1 YI5      -0.310900
     25 H25          3.5020     1.9690     2.1200 ha         1 YI5       0.163000
     26 H12         -0.6470     0.2420     4.3100 ha         1 YI5       0.143000
     27 H16          3.5100    -0.2520     3.3480 ha         1 YI5       0.154000
     28 H15          4.0600    -0.2480     5.7490 ha         1 YI5       0.148000
     29 H22          6.0980    -1.9600     0.6030 ha         1 YI5       0.155000
     30 H30          3.8970    -2.4140    -0.5220 ho         1 YI5       0.431000
     31 H29          7.9100     0.2120     0.7350 ho         1 YI5       0.429000
     32 H341         4.0850    -1.0910     7.6580 h1         1 YI5       0.043033
     33 H342         4.2820     0.6660     7.6130 h1         1 YI5       0.043033
     34 H343         3.8200    -0.1330     9.1220 h1         1 YI5       0.043033
     35 HAB1        -1.6900     1.2880     5.7900 h1         1 YI5       0.041700
     36 HAB2        -2.3010     0.5030     7.2530 h1         1 YI5       0.041700
     37 HAB3        -1.8870    -0.4700     5.8350 h1         1 YI5       0.041700
@<TRIPOS>BOND
     1     1     2 2
     2     1    20 1
     3     2     3 1
     4     3     4 2
     5     3     5 1
     6     4     6 1
     7     4    20 1
     8     5    12 ar
     9     5    16 ar
    10     6     7 ar
    11     6    11 ar
    12     7     8 ar
    13     8     9 ar
    14     8    24 1
    15     9    10 ar
    16     9    19 1
    17    10    11 ar
    18    12    13 ar
    19    12    18 1
    20    13    14 ar
    21    14    15 ar
    22    14    17 1
    23    15    16 ar
    24    15    22 1
    25    19    21 1
    26    23    24 1
    27    16    25 1
    28     7    26 1
    29    11    27 1
    30    10    28 1
    31    13    29 1
    32    18    30 1
    33    17    31 1
    34    21    32 1
    35    21    33 1
    36    21    34 1
    37    23    35 1
    38    23    36 1
    39    23    37 1
@<TRIPOS>SUBSTRUCTURE
     1 YI5         1 TEMP              0 ****  ****    0 ROOT
