@<TRIPOS>MOLECULE
YI5
   37    39     1     0     0
SMALL
bcc


@<TRIPOS>ATOM
      1 N1          0.0430   -0.8530    0.0690 nc        1 YI5     -0.133100
      2 N2          1.2490   -0.6010   -0.0660 nd        1 YI5     -0.258000
      3 C3          1.9270   -0.3990    1.1690 cd        1 YI5      0.336800
      4 C4          1.0750   -0.5360    2.2730 cc        1 YI5     -0.069400
      5 C6          3.3460   -0.0790    1.1780 ca        1 YI5     -0.177500
      6 C7          1.4060   -0.4330    3.6720 ca        1 YI5     -0.033000
      7 C12         0.5210    0.2220    4.5500 ca        1 YI5     -0.166000
      8 C13         0.8220    0.3120    5.9050 ca        1 YI5      0.102100
      9 C14         2.0240   -0.2640    6.4060 ca        1 YI5      0.121100
     10 C15         2.8920   -0.9140    5.5290 ca        1 YI5     -0.186000
     11 C16         2.5840   -0.9950    4.1710 ca        1 YI5     -0.089000
     12 C21         4.3010   -1.0010    0.6930 ca        1 YI5      0.190100
     13 C22         5.6630   -0.6810    0.6640 ca        1 YI5     -0.252000
     14 C23         6.0820    0.5750    1.1260 ca        1 YI5      0.187100
     15 C24         5.1400    1.4990    1.6160 ca        1 YI5     -0.112600
     16 C25         3.7840    1.1670    1.6320 ca        1 YI5     -0.025000
     17 O29         7.4310    0.8100    1.0670 oh        1 YI5     -0.487100
     18 O30         3.8400   -2.2240    0.2790 oh        1 YI5     -0.477100
     19 O33         2.2260   -0.1220    7.7610 os        1 YI5     -0.299900
     20 S1         -0.4730   -0.8960    1.6750 ss        1 YI5      0.100200
     21 C34         3.4280   -0.6870    8.2750 c3        1 YI5      0.108700
     22 CL          5.6300    3.0270    2.1830 cl        1 YI5     -0.088400
     23 CAB        -1.1790    1.5080    6.3710 c3        1 YI5      0.108700
     24 OAN         0.0320    0.9340    6.8500 os        1 YI5     -0.301900
     25 H25         3.0460    1.8960    2.0070 ha        1 YI5      0.160000
     26 H12        -0.4050    0.6620    4.1520 ha        1 YI5      0.146000
     27 H16         3.2760   -1.5080    3.4840 ha        1 YI5      0.148000
     28 H15         3.8250   -1.3660    5.8970 ha        1 YI5      0.145000
     29 H22         6.4090   -1.3930    0.2830 ha        1 YI5      0.160000
     30 H30         4.5820   -2.7100   -0.1140 ho        1 YI5      0.427000
     31 H29         7.6010    1.7100    1.3910 ho        1 YI5      0.435000
     32 H341        3.3750   -0.4490    9.3680 h1        1 YI5      0.046700
     33 H342        4.3220   -0.2060    7.8090 h1        1 YI5      0.046700
     34 H343        3.4460   -1.7920    8.1120 h1        1 YI5      0.046700
     35 HAB1       -1.8410    0.7240    5.9290 h1        1 YI5      0.046033
     36 HAB2       -1.6410    1.9400    7.2950 h1        1 YI5      0.046033
     37 HAB3       -0.9690    2.3110    5.6230 h1        1 YI5      0.046033
@<TRIPOS>BOND
     1    1    2 2   
     2    1   20 1   
     3    2    3 1   
     4    3    4 2   
     5    3    5 1   
     6    4    6 1   
     7    4   20 1   
     8    5   12 ar  
     9    5   16 ar  
    10    6    7 ar  
    11    6   11 ar  
    12    7    8 ar  
    13    7   26 1   
    14    8    9 ar  
    15    8   24 1   
    16    9   10 ar  
    17    9   19 1   
    18   10   11 ar  
    19   10   28 1   
    20   11   27 1   
    21   12   13 ar  
    22   12   18 1   
    23   13   14 ar  
    24   13   29 1   
    25   14   15 ar  
    26   14   17 1   
    27   15   16 ar  
    28   15   22 1   
    29   16   25 1   
    30   17   31 1   
    31   18   30 1   
    32   19   21 1   
    33   21   32 1   
    34   21   33 1   
    35   21   34 1   
    36   23   24 1   
    37   23   35 1   
    38   23   36 1   
    39   23   37 1   
@<TRIPOS>SUBSTRUCTURE
     1 YI5         1 TEMP              0 ****  ****    0 ROOT
