@<TRIPOS>MOLECULE
molecule
   24    24     1     0     0
SMALL
bcc


@<TRIPOS>ATOM
      1 C12          0.0000     0.0000     0.0000 ca         1 YI6      -0.192000
      2 C13          1.3810     0.0000     0.0000 ca         1 YI6      -0.090000
      3 C5           2.0740     0.0000     1.1960 ca         1 YI6      -0.037300
      4 C6           1.3860     0.0000     2.3960 ca         1 YI6      -0.090000
      5 C7           0.0040    -0.0000     2.4010 ca         1 YI6      -0.192000
      6 C8          -0.6930     0.0010     1.2020 ca         1 YI6       0.100100
      7 C2           4.0840     1.4200     1.1930 c          1 YI6       0.892600
      8 O9          -2.0510     0.0060     1.2040 os         1 YI6      -0.345900
      9 C10         -2.6980     0.0060     2.4790 c3         1 YI6       0.141400
     10 C11         -4.2150     0.0120     2.2820 c3         1 YI6      -0.093100
     11 O1           5.4040     1.6650     1.1900 o          1 YI6      -0.844800
     12 O3           3.2990     2.3390     1.1930 o          1 YI6      -0.844800
     13 C4           3.5810     0.0000     1.1940 c3         1 YI6      -0.150100
     14 H6           1.9310    -0.0000     3.3320 ha         1 YI6       0.130000
     15 H7          -0.5340     0.0000     3.3410 ha         1 YI6       0.117000
     16 H13          1.9220    -0.0000    -0.9380 ha         1 YI6       0.130000
     17 H12         -0.5420     0.0000    -0.9380 ha         1 YI6       0.117000
     18 H41C         3.9400    -0.5110     0.3090 hc         1 YI6       0.037700
     19 H42C         3.9430    -0.5100     2.0780 hc         1 YI6       0.037700
     20 H111        -4.5110    -0.8690     1.7260 hc         1 YI6       0.038700
     21 H112        -4.5030     0.9000     1.7310 hc         1 YI6       0.038700
     22 H113        -4.7050     0.0120     3.2480 hc         1 YI6       0.038700
     23 H101        -2.4090    -0.8810     3.0300 h1         1 YI6       0.030200
     24 H102        -2.4020     0.8880     3.0340 h1         1 YI6       0.030200
@<TRIPOS>BOND
     1     4     5 ar
     2     4     3 ar
     3     2     1 ar
     4     2     3 ar
     5     5     6 ar
     6     1     6 ar
     7     3    13 1
     8     6     8 1
     9     7    13 1
    10     7    12 1
    11     7    11 1
    12    10     9 1
    13     9     8 1
    14     4    14 1
    15     5    15 1
    16     2    16 1
    17     1    17 1
    18    13    18 1
    19    13    19 1
    20    10    20 1
    21    10    21 1
    22    10    22 1
    23     9    23 1
    24     9    24 1
@<TRIPOS>SUBSTRUCTURE
     1 YI6         1 TEMP              0 ****  ****    0 ROOT
