@<TRIPOS>MOLECULE
molecule
   19    20     1     0     0
SMALL
bcc


@<TRIPOS>ATOM
      1 Cl1          0.0000     0.0000     0.0000 cl         1 YIE      -0.154400
      2 C2           1.7360     0.0000     0.0000 ca         1 YIE       0.011400
      3 C5           2.4270     0.0000     1.1990 ca         1 YIE      -0.130500
      4 C6           3.8090    -0.0010     1.1990 ca         1 YIE      -0.109500
      5 C7           4.5000    -0.0000     0.0020 ca         1 YIE      -0.039300
      6 C4           3.8100     0.0010    -1.1950 ca         1 YIE      -0.109500
      7 C3           2.4290    -0.0060    -1.1970 ca         1 YIE      -0.130500
      8 C8           6.0070    -0.0000     0.0020 c3         1 YIE      -0.020400
      9 C9           6.5100    -1.4210     0.0020 cc         1 YIE       0.384300
     10 N10          6.7680    -2.1680     1.0660 n1         1 YIE      -0.496000
     11 N11          7.1770    -3.3160     0.6460 nd         1 YIE      -0.170000
     12 N12          7.1830    -3.3140    -0.6420 nd         1 YIE      -0.170000
     13 N13          6.7750    -2.1650    -1.0610 nc         1 YIE      -0.496000
     14 H4           4.3530    -0.0010    -2.1330 ha         1 YIE       0.145000
     15 H3           1.8880    -0.0040    -2.1360 ha         1 YIE       0.128000
     16 H6           4.3510    -0.0010     2.1370 ha         1 YIE       0.145000
     17 H5           1.8860    -0.0000     2.1370 ha         1 YIE       0.128000
     18 H81C         6.3690     0.5110    -0.8820 hc         1 YIE       0.042700
     19 H82C         6.3680     0.5110     0.8870 hc         1 YIE       0.042700
@<TRIPOS>BOND
     1     6     7 ar
     2     6     5 ar
     3     4     3 ar
     4     4     5 ar
     5     7     2 ar
     6     3     2 ar
     7     5     8 1
     8     2     1 1
     9     9     8 1
    10     9    13 1
    11     9    10 2
    12    13    12 2
    13    10    11 2
    14    12    11 1
    15     6    14 1
    16     7    15 1
    17     4    16 1
    18     3    17 1
    19     8    18 1
    20     8    19 1
@<TRIPOS>SUBSTRUCTURE
     1 YIE         1 TEMP              0 ****  ****    0 ROOT
