@<TRIPOS>MOLECULE
molecule
   20    21     1     0     0
SMALL
bcc


@<TRIPOS>ATOM
      1 C6           0.0000     0.0000     0.0000 ca         1 YIH      -0.164000
      2 C5           1.3820     0.0000     0.0000 ca         1 YIH      -0.083000
      3 C15          0.0020    -0.0020     2.4010 ca         1 YIH      -0.220000
      4 C7          -0.6940    -0.0010     1.2010 ca         1 YIH       0.184100
      5 C3           2.0750     0.0000     1.1980 ca         1 YIH      -0.029600
      6 C2           1.3840    -0.0010     2.3980 ca         1 YIH       0.074400
      7 C10         -4.1950    -0.0010     2.2780 cc         1 YIH       0.379300
      8 C9          -2.7000    -0.0020     2.4750 c3         1 YIH       0.152100
      9 N12         -6.1840    -0.6450     2.0170 n1         1 YIH      -0.163500
     10 N11         -4.9750    -1.0620     2.1750 nc         1 YIH      -0.480000
     11 N14         -4.9750     1.0600     2.1830 nd         1 YIH      -0.480000
     12 N13         -6.1840     0.6430     2.0220 nd         1 YIH      -0.163500
     13 O8          -2.0530    -0.0010     1.2020 os         1 YIH      -0.297900
     14 Cl4          3.8100    -0.0010     1.1960 cl         1 YIH      -0.122400
     15 Cl1          2.2550    -0.0020     3.9000 cl         1 YIH      -0.110400
     16 H6          -0.5420     0.0000    -0.9380 ha         1 YIH       0.154000
     17 H5           1.9240     0.0010    -0.9380 ha         1 YIH       0.141000
     18 H15         -0.5380    -0.0030     3.3410 ha         1 YIH       0.162000
     19 H91C        -2.4090    -0.8870     3.0280 h1         1 YIH       0.035700
     20 H92C        -2.4090     0.8820     3.0300 h1         1 YIH       0.035700
@<TRIPOS>BOND
     1     1     2 ar
     2     1     4 ar
     3     2     5 ar
     4     3     4 ar
     5     3     6 ar
     6     4    13 1
     7     5     6 ar
     8     5    14 1
     9     6    15 1
    10     7     8 1
    11     7    10 1
    12     7    11 2
    13     8    13 1
    14     9    10 2
    15     9    12 2
    16    11    12 1
    17     1    16 1
    18     2    17 1
    19     3    18 1
    20     8    19 1
    21     8    20 1
@<TRIPOS>SUBSTRUCTURE
     1 YIH         1 TEMP              0 ****  ****    0 ROOT
