@<TRIPOS>MOLECULE
YIN
   47    52     1     0     0
SMALL
bcc


@<TRIPOS>ATOM
      1 C1           0.0000     0.0000     0.0000 ca         1 YIN      -0.121300
      2 N1          -1.7890     1.0480    -1.2300 na         1 YIN       0.346400
      3 O1          -0.7910    -3.5420    -2.5700 os         1 YIN      -0.299900
      4 Br1          2.3280    -0.0010     4.0330 br         1 YIN      -0.126100
      5 C2           1.3830     0.0000     0.0000 ca         1 YIN      -0.077500
      6 N2          -3.8310     1.8370    -1.2820 na         1 YIN       0.100100
      7 C3           2.0740     0.0000     1.1970 ca         1 YIN      -0.081000
      8 N3          -3.4450    -0.5590    -1.6280 ne         1 YIN      -0.370600
      9 C4           1.3830     0.0000     2.3950 ca         1 YIN       0.041100
     10 N4          -1.7530     2.4240    -1.0080 n2         1 YIN      -0.562800
     11 C5          -0.0010     0.0000     2.3940 ca         1 YIN      -0.081000
     12 C6          -0.6910     0.0000     1.1980 ca         1 YIN      -0.077500
     13 C7          -0.2890    -2.5530    -1.6680 c3         1 YIN       0.350600
     14 C8          -2.9650     2.8770    -1.0410 cc         1 YIN       0.311400
     15 C9          -1.2420    -1.3990    -1.5740 c2         1 YIN      -0.357400
     16 C10         -0.7540     0.0070    -1.3050 c3         1 YIN       0.162500
     17 C11         -3.0950     0.6860    -1.3970 cd         1 YIN      -0.158600
     18 C12         -2.5700    -1.5900    -1.7250 ce         1 YIN       0.273400
     19 C13         -4.3670    -3.3320    -1.8630 ca         1 YIN      -0.031000
     20 C14         -4.7560    -4.6290    -2.1370 ca         1 YIN      -0.148000
     21 C15         -3.8230    -5.5630    -2.5550 ca         1 YIN      -0.061000
     22 C16         -2.4940    -5.2100    -2.7050 ca         1 YIN      -0.146000
     23 C17         -2.0910    -3.9150    -2.4340 ca         1 YIN       0.163100
     24 C18         -3.0350    -2.9700    -2.0100 ca         1 YIN      -0.131800
     25 C19         -1.1390    -3.8990     0.2630 ca         1 YIN      -0.097000
     26 C20         -0.1120    -3.1660    -0.3040 ca         1 YIN      -0.119300
     27 C21          1.0770    -2.9970     0.3820 ca         1 YIN      -0.097000
     28 C22          1.2380    -3.5600     1.6340 ca         1 YIN      -0.083500
     29 C23          0.2110    -4.2930     2.2010 ca         1 YIN       0.039100
     30 C24         -0.9770    -4.4620     1.5150 ca         1 YIN      -0.083500
     31 H2           1.9250     0.0000    -0.9380 ha         1 YIN       0.110500
     32 H3           3.1570     0.0000     1.1970 ha         1 YIN       0.118500
     33 H5          -0.5430     0.0000     3.3320 ha         1 YIN       0.118500
     34 H6          -1.7750     0.0000     1.1980 ha         1 YIN       0.110500
     35 H8          -3.1660     3.8570    -1.4570 h5         1 YIN       0.034100
     36 H13         -5.0970    -2.6020    -1.5360 ha         1 YIN       0.121000
     37 H14         -5.7940    -4.9170    -2.0240 ha         1 YIN       0.106000
     38 H15         -4.1370    -6.5780    -2.7680 ha         1 YIN       0.102000
     39 H16         -1.7710    -5.9460    -3.0320 ha         1 YIN       0.119000
     40 H19         -2.0700    -4.0320    -0.2740 ha         1 YIN       0.126000
     41 H21          1.8810    -2.4230    -0.0620 ha         1 YIN       0.126000
     42 H22          2.1700    -3.4280     2.1720 ha         1 YIN       0.117500
     43 H24         -1.7820    -5.0360     1.9590 ha         1 YIN       0.117500
     44 HN2         -4.8260     1.9080    -1.3570 hn         1 YIN       0.161700
     45 H10         -0.0650     0.2780    -2.0960 h1         1 YIN       0.030700
     46 H7           0.6680    -2.1950    -2.0310 h1         1 YIN       0.042700
     47 Br2          0.4340    -5.0640     3.9130 br         1 YIN      -0.137100
@<TRIPOS>BOND
     1     1     5 ar  
     2     1    12 ar  
     3     1    16 1   
     4     2    10 1   
     5     2    16 1   
     6     2    17 1   
     7     3    13 1   
     8     3    23 1   
     9     4     9 1   
    10     5     7 ar  
    11     5    31 1   
    12     6    14 1   
    13     6    17 1   
    14     6    44 1   
    15     7     9 ar  
    16     7    32 1   
    17     8    17 2   
    18     8    18 1   
    19     9    11 ar  
    20    10    14 2   
    21    11    12 ar  
    22    11    33 1   
    23    12    34 1   
    24    13    15 1   
    25    13    26 1   
    26    13    46 1   
    27    14    35 1   
    28    15    16 1   
    29    15    18 2   
    30    16    45 1   
    31    18    24 1   
    32    19    20 ar  
    33    19    24 ar  
    34    19    36 1   
    35    20    21 ar  
    36    20    37 1   
    37    21    22 ar  
    38    21    38 1   
    39    22    23 ar  
    40    22    39 1   
    41    23    24 ar  
    42    25    26 ar  
    43    25    30 ar  
    44    25    40 1   
    45    26    27 ar  
    46    27    28 ar  
    47    27    41 1   
    48    28    29 ar  
    49    28    42 1   
    50    29    30 ar  
    51    29    47 1   
    52    30    43 1   
@<TRIPOS>SUBSTRUCTURE
     1 YIN         1 TEMP              0 ****  ****    0 ROOT
