@<TRIPOS>MOLECULE
YIO
   24    24     1     0     0
SMALL
bcc


@<TRIPOS>ATOM
      1 C1         -0.0310   -0.0820    0.1900 c3        1 YIO      0.207200
      2 C2          1.4990   -0.0080    0.1270 c3        1 YIO      0.080100
      3 C3          2.0710    0.0580    1.5540 c3        1 YIO      0.113100
      4 C4          1.4460    1.2410    2.3120 c3        1 YIO      0.124100
      5 C5         -0.0840    1.1490    2.2370 c3        1 YIO      0.096100
      6 C6         -0.7460    2.4150    2.7900 c3        1 YIO      0.144400
      7 O2          2.0560   -1.1670   -0.4670 oh        1 YIO     -0.603800
      8 O3          3.4680    0.2910    1.5240 oh        1 YIO     -0.607800
      9 O4          1.8460    2.4820    1.7590 oh        1 YIO     -0.593800
     10 O5         -0.5560    1.0340    0.8900 os        1 YIO     -0.408600
     11 O6         -2.1410    2.2430    2.9120 oh        1 YIO     -0.597800
     12 S1         -0.7850   -0.0570   -1.4240 sh        1 YIO     -0.360900
     13 H1         -0.3530   -1.0440    0.6690 h2        1 YIO      0.087700
     14 H2          1.8160    0.9110   -0.4420 h1        1 YIO      0.072700
     15 H3          1.8590   -0.9070    2.0920 h1        1 YIO      0.059700
     16 HA          1.6450   -1.2590   -1.3390 ho        1 YIO      0.427000
     17 H4          1.7700    1.1950    3.3900 h1        1 YIO      0.059700
     18 HB          3.8490   -0.3770    0.9380 ho        1 YIO      0.432000
     19 H5         -0.4200    0.2420    2.8140 h1        1 YIO      0.060700
     20 HC          2.8110    2.4550    1.6890 ho        1 YIO      0.426000
     21 H61C       -0.3770    2.6050    3.8320 h1        1 YIO      0.067700
     22 H62C       -0.5030    3.2870    2.1280 h1        1 YIO      0.067700
     23 HO6        -2.4850    2.0840    2.0240 ho        1 YIO      0.413000
     24 HS1        -0.7570    1.2470   -1.6580 hs        1 YIO      0.232800
@<TRIPOS>BOND
     1    1    2 1   
     2    1   10 1   
     3    1   12 1   
     4    1   13 1   
     5    2    3 1   
     6    2    7 1   
     7    2   14 1   
     8    3    4 1   
     9    3    8 1   
    10    3   15 1   
    11    4    5 1   
    12    4    9 1   
    13    4   17 1   
    14    5    6 1   
    15    5   10 1   
    16    5   19 1   
    17    6   11 1   
    18    6   21 1   
    19    6   22 1   
    20    7   16 1   
    21    8   18 1   
    22    9   20 1   
    23   11   23 1   
    24   12   24 1   
@<TRIPOS>SUBSTRUCTURE
     1 YIO         1 TEMP              0 ****  ****    0 ROOT
