@<TRIPOS>MOLECULE
molecule
   24    24     1     0     0
SMALL
bcc


@<TRIPOS>ATOM
      1 C1           0.0000     0.0000     0.0000 c3         1 YIO       0.249200
      2 C2           1.5310     0.0000     0.0000 c3         1 YIO       0.133100
      3 C3           2.0340     0.0000     1.4470 c3         1 YIO       0.129100
      4 C4           1.4520     1.2140     2.1780 c3         1 YIO       0.102100
      5 C5          -0.0750     1.1680     2.0930 c3         1 YIO       0.140100
      6 C6          -0.6630     2.4090     2.7690 c3         1 YIO       0.151400
      7 O2           2.0090    -1.1680    -0.6700 oh         1 YIO      -0.597800
      8 O3           3.4610     0.0740     1.4570 oh         1 YIO      -0.590800
      9 O4           1.9270     2.4140     1.5640 oh         1 YIO      -0.579800
     10 O5          -0.4750     1.1380     0.7210 os         1 YIO      -0.384600
     11 O6          -2.0880     2.3090     2.7940 oh         1 YIO      -0.602800
     12 S1          -0.6050     0.0720    -1.7090 sh         1 YIO      -0.365900
     13 H1          -0.3590    -0.9040     0.4780 h2         1 YIO       0.055700
     14 H2           1.8920     0.8870    -0.5070 h1         1 YIO       0.087700
     15 H3           1.7100    -0.9080     1.9410 h1         1 YIO       0.047700
     16 HA           2.4510    -0.9160    -1.4640 ho         1 YIO       0.418000
     17 H4           1.7560     1.1890     3.2180 h1         1 YIO       0.040700
     18 HB           3.8080    -0.6190     1.9940 ho         1 YIO       0.406000
     19 H5          -0.4360     0.2750     2.5910 h1         1 YIO       0.050700
     20 HC           2.5560     2.8300     2.1310 ho         1 YIO       0.406000
     21 H61C        -0.3720     3.2930     2.2150 h1         1 YIO       0.036700
     22 H62C        -0.2890     2.4790     3.7830 h1         1 YIO       0.036700
     23 HO6         -2.4470     3.0450     3.2600 ho         1 YIO       0.404000
     24 HS1         -1.9040    -0.2010    -1.7300 hs         1 YIO       0.224800
@<TRIPOS>BOND
     1     1     2 1
     2     1    10 1
     3     1    12 1
     4     2     3 1
     5     2     7 1
     6     3     4 1
     7     3     8 1
     8     4     5 1
     9     4     9 1
    10     5     6 1
    11     5    10 1
    12     6    11 1
    13     1    13 1
    14     2    14 1
    15     3    15 1
    16     7    16 1
    17     4    17 1
    18     8    18 1
    19     5    19 1
    20     9    20 1
    21     6    21 1
    22     6    22 1
    23    12    24 1
    24    11    23 1
@<TRIPOS>SUBSTRUCTURE
     1 YIO         1 TEMP              0 ****  ****    0 ROOT
