@<TRIPOS>MOLECULE
molecule
   20    21     1     0     0
SMALL
bcc


@<TRIPOS>ATOM
      1 C3           0.0000     0.0000     0.0000 ca         1 YIP      -0.167000
      2 C2           1.3820     0.0000     0.0000 ca         1 YIP       0.063400
      3 C14          2.0750     0.0000     1.1970 ca         1 YIP      -0.188000
      4 C13          1.3860     0.0000     2.3960 ca         1 YIP      -0.087000
      5 C12          0.0050    -0.0010     2.4010 ca         1 YIP      -0.229000
      6 C4          -0.6920     0.0000     1.2020 ca         1 YIP       0.181100
      7 O5          -2.0510    -0.0010     1.2050 os         1 YIP      -0.302900
      8 C6          -2.6970    -0.0010     2.4800 c3         1 YIP       0.155100
      9 C7          -4.1920    -0.0020     2.2860 cc         1 YIP       0.380300
     10 N11         -4.9720     1.0590     2.1790 n1         1 YIP      -0.480500
     11 N10         -6.1810     0.6410     2.0230 nd         1 YIP      -0.165000
     12 N9          -6.1810    -0.6470     2.0310 nd         1 YIP      -0.165000
     13 N8          -4.9710    -1.0630     2.1850 nc         1 YIP      -0.480500
     14 Cl1          2.2490    -0.0010    -1.5040 cl         1 YIP      -0.134400
     15 H13          1.9310    -0.0000     3.3330 ha         1 YIP       0.124000
     16 H12         -0.5340    -0.0010     3.3410 ha         1 YIP       0.145000
     17 H14          3.1580     0.0000     1.1960 ha         1 YIP       0.129000
     18 H3          -0.5420     0.0000    -0.9380 ha         1 YIP       0.157000
     19 H61C        -2.4050     0.8840     3.0330 h1         1 YIP       0.032700
     20 H62C        -2.4040    -0.8850     3.0330 h1         1 YIP       0.032700
@<TRIPOS>BOND
     1     4     5 ar
     2     4     3 ar
     3     5     6 ar
     4     3     2 ar
     5     1     6 ar
     6     1     2 ar
     7     6     7 1
     8     2    14 1
     9     9     8 1
    10     9    13 1
    11     9    10 2
    12     8     7 1
    13    12    13 2
    14    12    11 1
    15    10    11 2
    16     4    15 1
    17     5    16 1
    18     3    17 1
    19     1    18 1
    20     8    19 1
    21     8    20 1
@<TRIPOS>SUBSTRUCTURE
     1 YIP         1 TEMP              0 ****  ****    0 ROOT
