@<TRIPOS>MOLECULE
molecule
   48    51     1     0     0
SMALL
bcc


@<TRIPOS>ATOM
      1 CAU          0.0000     0.0000     0.0000 ca         1 YIQ      -0.139000
      2 CAV          1.3910     0.0000     0.0000 ca         1 YIQ      -0.024200
      3 NAG          2.3370     0.0000     1.0010 na         1 YIQ      -0.180400
      4 CAZ          3.5930     0.0020     0.4530 cc         1 YIQ      -0.097100
      5 CBA          3.5070     0.0040    -0.8860 cd         1 YIQ      -0.193200
      6 CAW          2.0820     0.0040    -1.2250 ca         1 YIQ      -0.112800
      7 CAX          1.3720     0.0060    -2.4280 ca         1 YIQ      -0.057000
      8 CAY          0.0070     0.0050    -2.4130 ca         1 YIQ      -0.183000
      9 CAT         -0.6850     0.0010    -1.2020 ca         1 YIQ       0.055600
     10 NAF         -2.0850    -0.0000    -1.2030 ns         1 YIQ      -0.467100
     11 CAS         -2.7590     0.6430    -0.2300 c          1 YIQ       0.688300
     12 OBB         -2.1560     1.3050     0.5940 o          1 YIQ      -0.567100
     13 CAQ         -4.2250     0.5460    -0.1640 cc         1 YIQ      -0.119300
     14 NAE         -5.0200    -0.1700    -1.0370 na         1 YIQ      -0.162400
     15 CAR         -5.0130     1.1420     0.7700 cd         1 YIQ      -0.101200
     16 CAO         -6.3560     0.8000     0.4800 ca         1 YIQ      -0.152800
     17 CAP         -7.5770     1.1170     1.0840 ca         1 YIQ      -0.002000
     18 CAN         -6.3340    -0.0270    -0.6610 ca         1 YIQ      -0.014200
     19 CAM         -7.5290    -0.5240    -1.1790 ca         1 YIQ      -0.160000
     20 CAL         -8.7170    -0.2100    -0.5870 ca         1 YIQ      -0.097000
     21 CAK         -8.7560     0.6120     0.5480 ca         1 YIQ      -0.153900
     22 CAI        -10.0500     0.9390     1.1760 ce         1 YIQ       0.495900
     23 CAJ        -11.3290     0.3940     0.5960 c3         1 YIQ      -0.194400
     24 NAD        -10.0870     1.6960     2.2300 n2         1 YIQ      -0.421400
     25 NAC        -11.3160     2.0060     2.8270 nu         1 YIQ      -0.508300
     26 CAH        -11.3560     2.8090     3.9430 c2         1 YIQ       0.831100
     27 NAB        -12.5620     3.1130     4.5300 nz         1 YIQ      -0.819600
     28 NAA        -10.2480     3.2810     4.4460 n2         1 YIQ      -0.987100
     29 HAU         -0.5440    -0.0030     0.9370 ha         1 YIQ       0.152000
     30 HAG          2.1370    -0.0020     1.9810 hn         1 YIQ       0.298700
     31 HAZ          4.5170     0.0020     1.0180 h4         1 YIQ       0.169000
     32 HBA          4.3360     0.0060    -1.5840 ha         1 YIQ       0.158000
     33 HAX          1.9040     0.0090    -3.3720 ha         1 YIQ       0.138000
     34 HAY         -0.5420     0.0050    -3.3470 ha         1 YIQ       0.127000
     35 HAF         -2.5840    -0.4800    -1.9250 hn         1 YIQ       0.315500
     36 HAE         -4.6930    -0.7080    -1.8150 hn         1 YIQ       0.305700
     37 HAR         -4.6680     1.6860     1.6410 ha         1 YIQ       0.181000
     38 HAP         -7.2960     1.7430     1.9220 ha         1 YIQ       0.168000
     39 HAM         -7.4330    -1.1460    -2.0600 ha         1 YIQ       0.140000
     40 HAL         -9.3230    -0.7580    -1.2990 ha         1 YIQ       0.163000
     41 HAJ1       -11.1010    -0.2150    -0.2720 hc         1 YIQ       0.066700
     42 HAJ2       -11.8330    -0.2120     1.3390 hc         1 YIQ       0.066700
     43 HAJ3       -11.9710     1.2150     0.3020 hc         1 YIQ       0.066700
     44 HAB1       -12.6550     2.6040     5.3870 hn         1 YIQ       0.462800
     45 HAB2       -13.3070     2.8620     3.9110 hn         1 YIQ       0.462800
     46 HAA         -9.7540     2.7620     5.1450 hn         1 YIQ       0.528400
     47 HAC        -12.1680     1.6720     2.4210 hn         1 YIQ       0.411800
     48 HAB3       -12.6030     4.0950     4.7210 hn         1 YIQ       0.462800
@<TRIPOS>BOND
     1     1     2 ar
     2     1     9 ar
     3     2     3 1
     4     2     6 ar
     5     3     4 1
     6     4     5 2
     7     5     6 1
     8     6     7 ar
     9     7     8 ar
    10     8     9 ar
    11     9    10 1
    12    10    11 1
    13    11    12 2
    14    11    13 1
    15    13    14 1
    16    13    15 2
    17    14    18 1
    18    15    16 1
    19    16    17 ar
    20    16    18 ar
    21    17    21 ar
    22    18    19 ar
    23    19    20 ar
    24    20    21 ar
    25    21    22 1
    26    22    23 1
    27    22    24 2
    28    24    25 1
    29    25    26 1
    30    26    27 1
    31    26    28 2
    32     1    29 1
    33     3    30 1
    34     4    31 1
    35     5    32 1
    36     7    33 1
    37     8    34 1
    38    10    35 1
    39    14    36 1
    40    15    37 1
    41    17    38 1
    42    19    39 1
    43    20    40 1
    44    23    41 1
    45    23    42 1
    46    23    43 1
    47    27    44 1
    48    27    45 1
    49    28    46 1
    50    25    47 1
    51    48    27 1
@<TRIPOS>SUBSTRUCTURE
     1 YIQ         1 TEMP              0 ****  ****    0 ROOT
