@<TRIPOS>MOLECULE
YIQ
   48    51     1     0     0
SMALL
bcc


@<TRIPOS>ATOM
      1 CAU          0.0000     0.0000     0.0000 ca         1 YIQ      -0.095000
      2 CAV          1.3910     0.0000     0.0000 ca         1 YIQ      -0.212200
      3 NAG          2.3370     0.0000     1.0010 na         1 YIQ       0.358600
      4 CAZ          3.5930     0.0020     0.4530 cc         1 YIQ      -0.265100
      5 CBA          3.5070     0.0040    -0.8860 cd         1 YIQ      -0.154200
      6 CAW          2.0820     0.0040    -1.2250 ca         1 YIQ      -0.110800
      7 CAX          1.3720     0.0060    -2.4280 ca         1 YIQ      -0.017000
      8 CAY          0.0070     0.0050    -2.4130 ca         1 YIQ      -0.158000
      9 CAT         -0.6850     0.0010    -1.2020 ca         1 YIQ      -0.097400
     10 NAF         -2.0850    -0.0000    -1.2030 ns         1 YIQ      -0.022100
     11 CAS         -2.7590     0.6430    -0.2300 c          1 YIQ       0.602300
     12 OBB         -2.1560     1.3050     0.5940 o          1 YIQ      -0.617100
     13 CAQ         -4.2250     0.5460    -0.1640 cc         1 YIQ      -0.331300
     14 NAE         -5.0200    -0.1700    -1.0370 na         1 YIQ       0.388600
     15 CAR         -5.0130     1.1420     0.7700 cd         1 YIQ      -0.051200
     16 CAO         -6.3560     0.8000     0.4800 ca         1 YIQ      -0.157800
     17 CAP         -7.5770     1.1170     1.0840 ca         1 YIQ       0.047000
     18 CAN         -6.3340    -0.0270    -0.6610 ca         1 YIQ      -0.204200
     19 CAM         -7.5290    -0.5240    -1.1790 ca         1 YIQ      -0.116000
     20 CAL         -8.7170    -0.2100    -0.5870 ca         1 YIQ      -0.077000
     21 CAK         -8.7560     0.6120     0.5480 ca         1 YIQ      -0.179900
     22 CAI        -10.0500     0.9390     1.1760 ce         1 YIQ       0.495900
     23 CAJ        -11.3290     0.3940     0.5960 c3         1 YIQ      -0.087400
     24 NAD        -10.0870     1.6960     2.2300 n2         1 YIQ      -0.518400
     25 NAC        -11.3160     2.0060     2.8270 nu         1 YIQ      -0.125300
     26 CAH        -11.3560     2.8090     3.9430 c2         1 YIQ       0.247100
     27 NAB        -12.5620     3.1130     4.5300 nz         1 YIQ       0.125400
     28 NAA        -10.2480     3.2810     4.4460 n2         1 YIQ      -0.541100
     29 HAU         -0.5440    -0.0030     0.9370 ha         1 YIQ       0.133000
     30 HAG          2.1370    -0.0020     1.9810 hn         1 YIQ       0.116700
     31 HAZ          4.5170     0.0030     1.0180 h4         1 YIQ       0.142000
     32 HBA          4.3360     0.0060    -1.5840 ha         1 YIQ       0.131000
     33 HAX          1.9040     0.0090    -3.3720 ha         1 YIQ       0.104000
     34 HAY         -0.5420     0.0050    -3.3470 ha         1 YIQ       0.103000
     35 HAF         -2.5840    -0.4870    -1.9200 hn         1 YIQ       0.153500
     36 HAE         -4.6920    -0.7070    -1.8160 hn         1 YIQ       0.120700
     37 HAR         -4.6830     1.8410     1.5290 ha         1 YIQ       0.148000
     38 HAP         -7.3990     1.7650     1.9330 ha         1 YIQ       0.127000
     39 HAM         -7.5080    -1.1620    -2.0530 ha         1 YIQ       0.109000
     40 HAL         -9.4330    -0.7460    -1.2000 ha         1 YIQ       0.121000
     41 HAJ1       -11.8100    -0.2500     1.3220 hc         1 YIQ       0.028033
     42 HAJ2       -11.1050    -0.1750    -0.2990 hc         1 YIQ       0.028033
     43 HAJ3       -11.9910     1.2140     0.3460 hc         1 YIQ       0.028033
     44 HAB1       -12.4830     3.9780     5.0270 hn         1 YIQ       0.223800
     45 HAB2       -13.2650     3.1980     3.8230 hn         1 YIQ       0.223800
     46 HAA        -10.2760     3.8650     5.2580 hn         1 YIQ       0.336400
     47 HAC        -12.1620     1.6140     2.4630 hn         1 YIQ       0.271800
     48 HAB3       -12.8160     2.3850     5.1680 hn         1 YIQ       0.223800
@<TRIPOS>BOND
     1     1     2 ar  
     2     1     9 ar  
     3     1    29 1   
     4     2     3 1   
     5     2     6 ar  
     6     3     4 1   
     7     3    30 1   
     8     4     5 2   
     9     4    31 1   
    10     5     6 1   
    11     5    32 1   
    12     6     7 ar  
    13     7     8 ar  
    14     7    33 1   
    15     8     9 ar  
    16     8    34 1   
    17     9    10 1   
    18    10    11 1   
    19    10    35 1   
    20    11    12 2   
    21    11    13 1   
    22    13    14 1   
    23    13    15 2   
    24    14    18 1   
    25    14    36 1   
    26    15    16 1   
    27    15    37 1   
    28    16    17 ar  
    29    16    18 ar  
    30    17    21 ar  
    31    17    38 1   
    32    18    19 ar  
    33    19    20 ar  
    34    19    39 1   
    35    20    21 ar  
    36    20    40 1   
    37    21    22 1   
    38    22    23 1   
    39    22    24 2   
    40    23    41 1   
    41    23    42 1   
    42    23    43 1   
    43    24    25 1   
    44    25    26 1   
    45    25    47 1   
    46    26    27 1   
    47    26    28 2   
    48    27    44 1   
    49    27    45 1   
    50    27    48 1   
    51    28    46 1   
@<TRIPOS>SUBSTRUCTURE
     1 YIQ         1 TEMP              0 ****  ****    0 ROOT
