@<TRIPOS>MOLECULE
molecule
   50    53     1     0     0
SMALL
bcc


@<TRIPOS>ATOM
      1 NAA          0.0000     0.0000     0.0000 no         1 YIR       0.302200
      2 NAB          2.7800     0.0000     1.3440 na         1 YIR      -0.156400
      3 NAC          4.1640     0.0110     3.9430 ns         1 YIR      -0.475100
      4 NAD          7.9110    -0.3190     9.1290 n2         1 YIR      -0.413400
      5 NAE          8.5660    -0.2070    10.3620 nu         1 YIR      -0.519300
      6 NAF         10.3150    -0.8720    11.8380 nz         1 YIR      -0.823600
      7 NAG         10.1120    -1.8190     9.7290 n2         1 YIR      -0.986100
      8 CAH          1.3240     0.0000    -2.0930 ca         1 YIR      -0.016000
      9 CAI          2.5330     0.0000    -2.7770 ca         1 YIR      -0.172000
     10 CAJ          3.7160     0.0010    -2.0970 ca         1 YIR      -0.015000
     11 CAK          3.7130     0.0010    -0.6960 ca         1 YIR      -0.134800
     12 CAL          2.4890     0.0000     0.0000 ca         1 YIR       0.018800
     13 CAM          1.2950     0.0000    -0.7170 ca         1 YIR      -0.181200
     14 CAN          4.7420    -0.0050     0.2790 cc         1 YIR      -0.080200
     15 CAO          4.1510     0.0000     1.5030 cd         1 YIR      -0.149300
     16 CAP          4.8610     0.0060     2.7910 c          1 YIR       0.702300
     17 CAQ          4.8340     0.1140     5.1650 ca         1 YIR       0.109600
     18 CAR          4.2570     0.8180     6.2140 ca         1 YIR      -0.175000
     19 CAS          4.9110     0.9240     7.4270 ca         1 YIR      -0.014300
     20 CAT          6.1560     0.3140     7.5870 ca         1 YIR      -0.185900
     21 CAU          6.7370    -0.3920     6.5310 ca         1 YIR      -0.052000
     22 CAV          6.0740    -0.4950     5.3270 ca         1 YIR      -0.136000
     23 CAW          4.2630     1.6990     8.5410 c3         1 YIR      -0.042100
     24 CAX          4.8050     1.2690     9.9010 c3         1 YIR      -0.073400
     25 CAY          6.3340     1.3930     9.9020 c3         1 YIR      -0.170700
     26 CAZ          6.8670     0.4110     8.8800 ce         1 YIR       0.488900
     27 CBA          9.6720    -0.9820    10.6270 c2         1 YIR       0.834100
     28 OBB         -1.0430     0.0000    -0.6290 o          1 YIR      -0.216500
     29 OBC         -0.0230    -0.0050     1.2180 o          1 YIR      -0.216500
     30 OBD          6.0770     0.0050     2.8150 o          1 YIR      -0.571100
     31 HNAB         2.1080     0.0040     2.0860 hn         1 YIR       0.323700
     32 HNAC         3.1640     0.0520     3.9200 hn         1 YIR       0.330500
     33 H1AF        10.7250     0.0380    11.9170 hn         1 YIR       0.463467
     34 H2AF        11.0320    -1.5670    11.9000 hn         1 YIR       0.463467
     35 HAG         10.7920    -1.5220     9.0580 hn         1 YIR       0.532400
     36 HAH          0.3930    -0.0000    -2.6480 ha         1 YIR       0.173000
     37 HAI          2.5360     0.0000    -3.8600 ha         1 YIR       0.156000
     38 HAJ          4.6540     0.0010    -2.6380 ha         1 YIR       0.150000
     39 HAN          5.8080    -0.0060     0.0830 ha         1 YIR       0.181000
     40 HAR          3.2890     1.2870     6.0810 ha         1 YIR       0.147000
     41 HAU          7.7030    -0.8650     6.6610 ha         1 YIR       0.157000
     42 HAV          6.4790    -1.1170     4.5380 ha         1 YIR       0.179000
     43 H1AW         3.1940     1.5270     8.5160 hc         1 YIR       0.070200
     44 H2AW         4.4610     2.7540     8.4000 hc         1 YIR       0.070200
     45 H1AX         4.3910     1.9090    10.6720 hc         1 YIR       0.061700
     46 H2AX         4.5260     0.2400    10.0910 hc         1 YIR       0.061700
     47 H1AY         6.7120     1.1270    10.8820 hc         1 YIR       0.059200
     48 H2AY         6.6110     2.3980     9.6080 hc         1 YIR       0.059200
     49 HAE          8.2590     0.4710    11.0320 hn         1 YIR       0.416800
     50 HAF3         9.6550    -1.0030    12.5790 hn         1 YIR       0.463467
@<TRIPOS>BOND
     1    29     1 1
     2     1    28 1
     3     1    13 1
     4     8    13 ar
     5     8     9 ar
     6    13    12 ar
     7     9    10 ar
     8    12     2 1
     9    12    11 ar
    10    10    11 ar
    11     2    15 1
    12    11    14 1
    13    15    14 2
    14    15    16 1
    15    30    16 2
    16    16     3 1
    17     3    17 1
    18    17    18 ar
    19    17    22 ar
    20    18    19 ar
    21    22    21 ar
    22    19    23 1
    23    19    20 ar
    24    23    24 1
    25    21    20 ar
    26    24    25 1
    27    20    26 1
    28    26    25 1
    29    26     4 2
    30     4     5 1
    31     5    27 1
    32     7    27 2
    33    27     6 1
    34     2    31 1
    35     3    32 1
    36     6    33 1
    37     6    34 1
    38     7    35 1
    39     8    36 1
    40     9    37 1
    41    10    38 1
    42    14    39 1
    43    18    40 1
    44    21    41 1
    45    22    42 1
    46    23    43 1
    47    23    44 1
    48    24    45 1
    49    24    46 1
    50    25    47 1
    51    25    48 1
    52     5    49 1
    53    50     6 1
@<TRIPOS>SUBSTRUCTURE
     1 YIR         1 TEMP              0 ****  ****    0 ROOT
