@<TRIPOS>MOLECULE
YIR
   50    53     1     0     0
SMALL
bcc


@<TRIPOS>ATOM
      1 NAA          0.0000     0.0000     0.0000 no         1 YIR       1.060200
      2 NAB          2.7800     0.0000     1.3440 na         1 YIR       0.384600
      3 NAC          4.1640     0.0110     3.9430 ns         1 YIR      -0.039100
      4 NAD          7.9110    -0.3190     9.1290 n2         1 YIR      -0.502400
      5 NAE          8.5660    -0.2070    10.3620 nu         1 YIR      -0.136300
      6 NAF         10.3150    -0.8720    11.8380 nz         1 YIR       0.123400
      7 NAG         10.1120    -1.8190     9.7290 n2         1 YIR      -0.536100
      8 CAH          1.3240     0.0000    -2.0930 ca         1 YIR       0.053000
      9 CAI          2.5330     0.0000    -2.7770 ca         1 YIR      -0.167000
     10 CAJ          3.7160     0.0010    -2.0970 ca         1 YIR       0.049000
     11 CAK          3.7130     0.0010    -0.6960 ca         1 YIR      -0.154800
     12 CAL          2.4890     0.0000     0.0000 ca         1 YIR      -0.150200
     13 CAM          1.2950     0.0000    -0.7170 ca         1 YIR      -0.470200
     14 CAN          4.7420    -0.0050     0.2790 cc         1 YIR      -0.033200
     15 CAO          4.1510     0.0000     1.5030 cd         1 YIR      -0.359300
     16 CAP          4.8610     0.0060     2.7910 c          1 YIR       0.622300
     17 CAQ          4.8340     0.1140     5.1650 ca         1 YIR      -0.038400
     18 CAR          4.2570     0.8180     6.2140 ca         1 YIR      -0.149000
     19 CAS          4.9110     0.9240     7.4270 ca         1 YIR      -0.023300
     20 CAT          6.1560     0.3140     7.5870 ca         1 YIR      -0.193900
     21 CAU          6.7370    -0.3920     6.5310 ca         1 YIR      -0.020000
     22 CAV          6.0740    -0.4950     5.3270 ca         1 YIR      -0.114000
     23 CAW          4.2630     1.6990     8.5410 c3         1 YIR       0.028900
     24 CAX          4.8050     1.2690     9.9010 c3         1 YIR      -0.014400
     25 CAY          6.3340     1.3930     9.9020 c3         1 YIR      -0.101700
     26 CAZ          6.8670     0.4110     8.8800 ce         1 YIR       0.488900
     27 CBA          9.6720    -0.9820    10.6270 c2         1 YIR       0.249100
     28 OBB         -1.0430     0.0000    -0.6290 o          1 YIR      -0.462500
     29 OBC         -0.0230    -0.0050     1.2180 o          1 YIR      -0.462500
     30 OBD          6.0770     0.0050     2.8150 o          1 YIR      -0.615100
     31 HNAB         2.1080     0.0040     2.0860 hn         1 YIR       0.145700
     32 HNAC         3.1640     0.0520     3.9200 hn         1 YIR       0.170500
     33 H1AF        10.7250     0.0380    11.9170 hn         1 YIR       0.224800
     34 H2AF        11.0320    -1.5670    11.9010 hn         1 YIR       0.224800
     35 HAG         10.9160    -2.3830     9.9210 hn         1 YIR       0.337400
     36 HAH          0.3930    -0.0000    -2.6480 ha         1 YIR       0.132000
     37 HAI          2.5360     0.0000    -3.8600 ha         1 YIR       0.122000
     38 HAJ          4.6540     0.0010    -2.6380 ha         1 YIR       0.109000
     39 HAN          5.8080    -0.0060     0.0830 ha         1 YIR       0.146000
     40 HAR          3.2880     1.2850     6.0820 ha         1 YIR       0.119000
     41 HAU          7.7030    -0.8650     6.6610 ha         1 YIR       0.126000
     42 HAV          6.4780    -1.1200     4.5390 ha         1 YIR       0.152000
     43 H1AW         4.4610     2.7540     8.4000 hc         1 YIR       0.033200
     44 H2AW         3.1940     1.5270     8.5160 hc         1 YIR       0.033200
     45 H1AX         4.5260     0.2400    10.0910 hc         1 YIR       0.026700
     46 H2AX         4.3910     1.9090    10.6720 hc         1 YIR       0.026700
     47 H1AY         6.7120     1.1270    10.8820 hc         1 YIR       0.026200
     48 H2AY         6.6110     2.3980     9.6080 hc         1 YIR       0.026200
     49 HAE          8.2720     0.4860    11.0220 hn         1 YIR       0.277800
     50 HAF3         9.6550    -1.0020    12.5790 hn         1 YIR       0.224800
@<TRIPOS>BOND
     1     1    13 1   
     2     1    28 1   
     3     1    29 1   
     4     2    12 1   
     5     2    15 1   
     6     2    31 1   
     7     3    16 1   
     8     3    17 1   
     9     3    32 1   
    10     4     5 1   
    11     4    26 2   
    12     5    27 1   
    13     5    49 1   
    14     6    27 1   
    15     6    33 1   
    16     6    34 1   
    17     6    50 1   
    18     7    27 2   
    19     7    35 1   
    20     8     9 ar  
    21     8    13 ar  
    22     8    36 1   
    23     9    10 ar  
    24     9    37 1   
    25    10    11 ar  
    26    10    38 1   
    27    11    12 ar  
    28    11    14 1   
    29    12    13 ar  
    30    14    15 2   
    31    14    39 1   
    32    15    16 1   
    33    16    30 2   
    34    17    18 ar  
    35    17    22 ar  
    36    18    19 ar  
    37    18    40 1   
    38    19    20 ar  
    39    19    23 1   
    40    20    21 ar  
    41    20    26 1   
    42    21    22 ar  
    43    21    41 1   
    44    22    42 1   
    45    23    24 1   
    46    23    43 1   
    47    23    44 1   
    48    24    25 1   
    49    24    45 1   
    50    24    46 1   
    51    25    26 1   
    52    25    47 1   
    53    25    48 1   
@<TRIPOS>SUBSTRUCTURE
     1 YIR         1 TEMP              0 ****  ****    0 ROOT
