@<TRIPOS>MOLECULE
molecule
   82    87     1     0     0
SMALL
bcc


@<TRIPOS>ATOM
      1 C1           0.0000     0.0000     0.0000 c3         1 YIS      -0.080767
      2 C2           1.5300     0.0000     0.0000 c3         1 YIS      -0.084300
      3 C3           2.0400     0.0000     1.4430 c3         1 YIS      -0.080767
      4 C4           2.0410    -1.2500    -0.7200 c3         1 YIS      -0.080767
      5 C5           2.0340     1.2300    -0.7100 cc         1 YIS       0.371600
      6 C6           2.0290     2.5290    -0.1960 cc         1 YIS      -0.339300
      7 C7           2.5650     3.3530    -1.1380 cd         1 YIS       0.083300
      8 N8           2.7430     4.7330    -1.0230 ns         1 YIS      -0.475100
      9 C9           2.3690     5.3690     0.1050 c          1 YIS       0.790100
     10 O10          1.8770     4.7410     1.0220 o          1 YIS      -0.634100
     11 N11          2.5410     6.7010     0.2160 ns         1 YIS      -0.593900
     12 C12          2.1350     7.3920     1.4410 c3         1 YIS       0.178300
     13 C13          2.4340     8.8630     1.3110 ca         1 YIS      -0.107300
     14 C14          3.5660     9.3950     1.8960 ca         1 YIS      -0.097000
     15 C15          3.8400    10.7440     1.7770 ca         1 YIS      -0.134000
     16 C16          2.9810    11.5680     1.0710 ca         1 YIS      -0.102000
     17 C17          1.8470    11.0450     0.4830 ca         1 YIS      -0.140000
     18 C18          1.5710     9.6870     0.5960 ca         1 YIS       0.025900
     19 S19          0.1290     9.0130    -0.1590 ss         1 YIS      -0.153800
     20 C20         -0.5220    10.3800    -1.0590 cc         1 YIS      -0.057100
     21 C21          0.1930    10.9050    -2.1560 cc         1 YIS      -0.105000
     22 C22         -0.3140    11.9600    -2.8480 cd         1 YIS      -0.085000
     23 C23         -1.5480    12.5140    -2.4590 cd         1 YIS      -0.066300
     24 N24         -2.2800    13.5170    -2.9220 nc         1 YIS      -0.085000
     25 N25         -3.3480    13.6370    -2.2160 nc         1 YIS      -0.308700
     26 C26         -3.3680    12.7260    -1.2630 cd         1 YIS       0.340400
     27 C27         -4.4270    12.5400    -0.2500 ca         1 YIS      -0.090900
     28 C28         -4.9340    11.2660     0.0090 ca         1 YIS      -0.102000
     29 C29         -5.9230    11.0990     0.9560 ca         1 YIS      -0.139000
     30 C30         -6.4170    12.1900     1.6520 ca         1 YIS      -0.094000
     31 C31         -5.9240    13.4570     1.4050 ca         1 YIS      -0.152000
     32 C32         -4.9240    13.6430     0.4610 ca         1 YIS       0.072900
     33 S33         -4.2890    15.2570     0.1500 ss         1 YIS      -0.186000
     34 C34         -5.2370    16.2960     1.2940 c3         1 YIS      -0.028300
     35 C35         -4.7960    17.7530     1.1450 c3         1 YIS       0.157400
     36 O36         -5.5420    18.5720     2.0460 oh         1 YIS      -0.610800
     37 N37         -2.2250    11.9840    -1.3870 na         1 YIS      -0.057200
     38 C38         -1.7140    10.9210    -0.7000 cd         1 YIS      -0.009300
     39 N39          2.8930     2.5860    -2.2120 na         1 YIS       0.110300
     40 N40          2.5530     1.2600    -1.9110 nd         1 YIS      -0.506800
     41 C41          3.4740     3.0400    -3.4060 ca         1 YIS       0.049800
     42 C42          4.3870     2.2410    -4.0810 ca         1 YIS      -0.111000
     43 C43          4.9580     2.6870    -5.2570 ca         1 YIS      -0.128000
     44 C44          4.6200     3.9350    -5.7630 ca         1 YIS       0.100100
     45 O45          5.1830     4.3730    -6.9210 oh         1 YIS      -0.506100
     46 C46          3.7080     4.7340    -5.0880 ca         1 YIS       0.021400
     47 Cl           3.2840     6.2940    -5.7220 cl         1 YIS      -0.086400
     48 C48          3.1320     4.2850    -3.9140 ca         1 YIS      -0.162000
     49 H11C        -0.3610     0.0720    -1.0190 hc         1 YIS       0.040033
     50 H12C        -0.3610     0.8460     0.5720 hc         1 YIS       0.040033
     51 H13C        -0.3610    -0.9180     0.4470 hc         1 YIS       0.040033
     52 H31C         1.5360     0.7780     2.0040 hc         1 YIS       0.040033
     53 H32C         3.1070     0.1850     1.4490 hc         1 YIS       0.040033
     54 H33C         1.8370    -0.9620     1.8970 hc         1 YIS       0.040033
     55 H41C         1.6450    -1.2730    -1.7280 hc         1 YIS       0.040033
     56 H42C         3.1230    -1.2290    -0.7580 hc         1 YIS       0.040033
     57 H43C         1.7150    -2.1340    -0.1840 hc         1 YIS       0.040033
     58 H6           1.7240     2.8170     0.8030 ha         1 YIS       0.205000
     59 H8           3.1810     5.2440    -1.7640 hn         1 YIS       0.324500
     60 H11          2.9660     7.2140    -0.5300 hn         1 YIS       0.315500
     61 H121         2.6820     6.9860     2.2830 h1         1 YIS       0.066200
     62 H122         1.0730     7.2530     1.6000 h1         1 YIS       0.066200
     63 H14          4.2400     8.7530     2.4490 ha         1 YIS       0.140000
     64 H15          4.7290    11.1580     2.2370 ha         1 YIS       0.137000
     65 H16          3.1980    12.6260     0.9820 ha         1 YIS       0.138000
     66 H17          1.1770    11.6900    -0.0710 ha         1 YIS       0.144000
     67 H21          1.0870    10.4060    -2.5090 ha         1 YIS       0.157000
     68 H38         -2.2620    10.5090     0.1380 h4         1 YIS       0.184000
     69 H22          0.2270    12.3710    -3.6910 ha         1 YIS       0.168000
     70 H28         -4.5510    10.4100    -0.5320 ha         1 YIS       0.135000
     71 H29         -6.3160    10.1090     1.1570 ha         1 YIS       0.138000
     72 H30         -7.1960    12.0500     2.3920 ha         1 YIS       0.137000
     73 H31         -6.3130    14.3060     1.9540 ha         1 YIS       0.143000
     74 H341        -5.0600    15.9680     2.3110 h1         1 YIS       0.074200
     75 H342        -6.2930    16.2140     1.0670 h1         1 YIS       0.074200
     76 H351        -4.9730    18.0810     0.1270 h1         1 YIS       0.034200
     77 H352        -3.7400    17.8350     1.3720 h1         1 YIS       0.034200
     78 H36         -5.2780    19.4720     1.9450 ho         1 YIS       0.409000
     79 H42          4.6500     1.2680    -3.6860 ha         1 YIS       0.165000
     80 H48          2.4200     4.9090    -3.3880 ha         1 YIS       0.153000
     81 H43          5.6700     2.0640    -5.7830 ha         1 YIS       0.154000
     82 H45          6.0200     4.7640    -6.7350 ho         1 YIS       0.423000
@<TRIPOS>BOND
     1     1     2 1
     2     2     3 1
     3     2     4 1
     4     2     5 1
     5     5     6 1
     6     5    40 2
     7     6     7 2
     8     7     8 1
     9     7    39 1
    10     8     9 1
    11     9    10 2
    12     9    11 1
    13    11    12 1
    14    12    13 1
    15    13    14 ar
    16    13    18 ar
    17    14    15 ar
    18    15    16 ar
    19    16    17 ar
    20    17    18 ar
    21    18    19 1
    22    19    20 1
    23    20    21 1
    24    20    38 2
    25    21    22 2
    26    22    23 1
    27    23    24 2
    28    23    37 1
    29    24    25 1
    30    25    26 2
    31    26    27 1
    32    26    37 1
    33    27    28 ar
    34    27    32 ar
    35    28    29 ar
    36    29    30 ar
    37    30    31 ar
    38    31    32 ar
    39    32    33 1
    40    33    34 1
    41    34    35 1
    42    35    36 1
    43    37    38 1
    44    39    40 1
    45    39    41 1
    46    41    42 ar
    47    41    48 ar
    48    42    43 ar
    49    43    44 ar
    50    44    45 1
    51    44    46 ar
    52    46    47 1
    53    46    48 ar
    54     1    49 1
    55     1    50 1
    56     1    51 1
    57     3    52 1
    58     3    53 1
    59     3    54 1
    60     4    55 1
    61     4    56 1
    62     4    57 1
    63     6    58 1
    64     8    59 1
    65    11    60 1
    66    12    61 1
    67    12    62 1
    68    14    63 1
    69    15    64 1
    70    16    65 1
    71    17    66 1
    72    21    67 1
    73    38    68 1
    74    22    69 1
    75    28    70 1
    76    29    71 1
    77    30    72 1
    78    31    73 1
    79    34    74 1
    80    34    75 1
    81    35    76 1
    82    35    77 1
    83    36    78 1
    84    42    79 1
    85    48    80 1
    86    43    81 1
    87    45    82 1
@<TRIPOS>SUBSTRUCTURE
     1 YIS         1 TEMP              0 ****  ****    0 ROOT
