@<TRIPOS>MOLECULE
molecule
   54    56     1     0     0
SMALL
bcc


@<TRIPOS>ATOM
      1 NAA          0.0000     0.0000     0.0000 na         1 YIT      -0.182400
      2 CAI          1.3770     0.0000     0.0000 ca         1 YIT      -0.053200
      3 CAH          2.3280     0.0000     1.0170 ca         1 YIT      -0.134000
      4 CAG          3.6680     0.0000     0.7070 ca         1 YIT      -0.175000
      5 CAL          4.0890    -0.0010    -0.6220 ca         1 YIT       0.141100
      6 OBB          5.4180    -0.0020    -0.9100 os         1 YIT      -0.327900
      7 CAO          6.3220    -0.0000     0.1960 c3         1 YIT       0.132700
      8 CAK          3.1660    -0.0020    -1.6450 ca         1 YIT      -0.107000
      9 CAJ          1.7970    -0.0010    -1.3450 ca         1 YIT      -0.090800
     10 CAN          0.6270    -0.0020    -2.1420 cc         1 YIT      -0.085200
     11 CAM         -0.4450    -0.0000    -1.3070 cd         1 YIT      -0.155300
     12 CAP         -1.8530    -0.0010    -1.7270 c          1 YIT       0.702300
     13 OBC         -2.1340    -0.0020    -2.9110 o          1 YIT      -0.575100
     14 NAB         -2.8330     0.0010    -0.8020 ns         1 YIT      -0.482100
     15 CAQ         -4.1680     0.1080    -1.1990 ca         1 YIT       0.114600
     16 CAV         -5.1610    -0.5420    -0.4740 ca         1 YIT      -0.155000
     17 CAU         -6.4790    -0.4380    -0.8620 ca         1 YIT      -0.059500
     18 CAR         -4.5010     0.8710    -2.3130 ca         1 YIT      -0.155000
     19 CAS         -5.8170     0.9790    -2.7070 ca         1 YIT      -0.059500
     20 CAT         -6.8170     0.3230    -1.9850 ca         1 YIT      -0.195900
     21 CAW         -8.2260     0.4360    -2.4040 ce         1 YIT       0.495900
     22 CAX         -8.5880     1.2570    -3.6140 c3         1 YIT      -0.178700
     23 CAZ         -8.6890     0.3440    -4.8380 c3         1 YIT      -0.083400
     24 CBA         -8.9350     1.1910    -6.0880 c3         1 YIT      -0.094100
     25 NAC         -9.1550    -0.1710    -1.7300 n2         1 YIT      -0.421400
     26 NAD        -10.5010     0.0110    -2.0710 nu         1 YIT      -0.509300
     27 CAY        -11.4890    -0.5460    -1.2920 c2         1 YIT       0.830100
     28 NAF        -11.1730    -1.2440    -0.2370 n2         1 YIT      -0.988100
     29 NAE        -12.8110    -0.3670    -1.6270 nz         1 YIT      -0.823600
     30 HAA         -0.5830     0.0010     0.8140 hn         1 YIT       0.290700
     31 HAH          1.9910     0.0010     2.0460 ha         1 YIT       0.128000
     32 HAG          4.1120     0.0020     1.6950 ha         1 YIT       0.153000
     33 HAK          3.4720    -0.0030    -2.6840 ha         1 YIT       0.155000
     34 HAF        -11.0260    -2.2310    -0.3150 hn         1 YIT       0.529400
     35 HAO1         7.3410    -0.0010    -0.1710 h1         1 YIT       0.042367
     36 HAO2         6.1550    -0.8840     0.8000 h1         1 YIT       0.042367
     37 HAO3         6.1550     0.8850     0.7980 h1         1 YIT       0.042367
     38 HAN          0.5920    -0.0020    -3.2250 ha         1 YIT       0.174000
     39 HAB         -2.6030    -0.0490     0.1710 hn         1 YIT       0.327500
     40 HAV         -4.8980    -1.1320     0.3960 ha         1 YIT       0.163000
     41 HAR         -3.7250     1.3790    -2.8720 ha         1 YIT       0.163000
     42 HAU         -7.2530    -0.9460    -0.2990 ha         1 YIT       0.147500
     43 HAS         -6.0760     1.5710    -3.5760 ha         1 YIT       0.147500
     44 HAX1        -9.5410     1.7440    -3.4480 hc         1 YIT       0.063700
     45 HAX2        -7.8250     2.0060    -3.7840 hc         1 YIT       0.063700
     46 HAZ1        -9.5100    -0.3500    -4.7050 hc         1 YIT       0.050700
     47 HAZ2        -7.7650    -0.2090    -4.9530 hc         1 YIT       0.050700
     48 HBA1        -8.0560     1.7860    -6.2990 hc         1 YIT       0.045367
     49 HBA2        -9.1420     0.5410    -6.9290 hc         1 YIT       0.045367
     50 HBA3        -9.7820     1.8450    -5.9200 hc         1 YIT       0.045367
     51 HAD        -10.7460     0.6080    -2.8350 hn         1 YIT       0.416800
     52 HAE1       -12.9930    -0.7970    -2.5120 hn         1 YIT       0.463467
     53 HAE2       -13.0110     0.6120    -1.6840 hn         1 YIT       0.463467
     54 HAE3       -13.3920    -0.7850    -0.9270 hn         1 YIT       0.463467
@<TRIPOS>BOND
     1     1     2 1
     2     1    11 1
     3     2     3 ar
     4     2     9 ar
     5     3     4 ar
     6     4     5 ar
     7     5     6 1
     8     5     8 ar
     9     6     7 1
    10     8     9 ar
    11     9    10 1
    12    10    11 2
    13    11    12 1
    14    12    13 2
    15    12    14 1
    16    14    15 1
    17    15    16 ar
    18    15    18 ar
    19    16    17 ar
    20    17    20 ar
    21    18    19 ar
    22    19    20 ar
    23    20    21 1
    24    21    22 1
    25    21    25 2
    26    22    23 1
    27    23    24 1
    28    25    26 1
    29    26    27 1
    30    27    28 2
    31    27    29 1
    32     1    30 1
    33     3    31 1
    34     4    32 1
    35     8    33 1
    36     7    35 1
    37     7    36 1
    38     7    37 1
    39    10    38 1
    40    14    39 1
    41    16    40 1
    42    18    41 1
    43    17    42 1
    44    19    43 1
    45    22    44 1
    46    22    45 1
    47    23    46 1
    48    23    47 1
    49    24    48 1
    50    24    49 1
    51    24    50 1
    52    26    51 1
    53    29    52 1
    54    29    53 1
    55    28    34 1
    56    54    29 1
@<TRIPOS>SUBSTRUCTURE
     1 YIT         1 TEMP              0 ****  ****    0 ROOT
