@<TRIPOS>MOLECULE
YIT
   54    56     1     0     0
SMALL
bcc


@<TRIPOS>ATOM
      1 NAA          0.0000     0.0000     0.0000 na         1 YIT       0.359600
      2 CAI          1.3770     0.0000     0.0000 ca         1 YIT      -0.245200
      3 CAH          2.3280     0.0000     1.0170 ca         1 YIT      -0.095000
      4 CAG          3.6680     0.0000     0.7070 ca         1 YIT      -0.163000
      5 CAL          4.0890    -0.0010    -0.6220 ca         1 YIT       0.156100
      6 OBB          5.4180    -0.0020    -0.9100 os         1 YIT      -0.307900
      7 CAO          6.3220    -0.0000     0.1960 c3         1 YIT       0.248700
      8 CAK          3.1660    -0.0020    -1.6450 ca         1 YIT      -0.085000
      9 CAJ          1.7970    -0.0010    -1.3450 ca         1 YIT      -0.089800
     10 CAN          0.6270    -0.0020    -2.1420 cc         1 YIT      -0.049200
     11 CAM         -0.4450    -0.0000    -1.3070 cd         1 YIT      -0.359300
     12 CAP         -1.8530    -0.0010    -1.7270 c          1 YIT       0.624300
     13 OBC         -2.1340    -0.0020    -2.9110 o          1 YIT      -0.617100
     14 NAB         -2.8330     0.0010    -0.8020 ns         1 YIT      -0.049100
     15 CAQ         -4.1680     0.1080    -1.1990 ca         1 YIT      -0.033400
     16 CAV         -5.1610    -0.5420    -0.4740 ca         1 YIT      -0.130500
     17 CAU         -6.4790    -0.4380    -0.8620 ca         1 YIT      -0.033500
     18 CAR         -4.5010     0.8710    -2.3130 ca         1 YIT      -0.130500
     19 CAS         -5.8170     0.9790    -2.7070 ca         1 YIT      -0.033500
     20 CAT         -6.8170     0.3230    -1.9850 ca         1 YIT      -0.205900
     21 CAW         -8.2260     0.4360    -2.4040 ce         1 YIT       0.494900
     22 CAX         -8.5880     1.2570    -3.6140 c3         1 YIT      -0.119700
     23 CAZ         -8.6890     0.3440    -4.8380 c3         1 YIT      -0.022400
     24 CBA         -8.9350     1.1910    -6.0880 c3         1 YIT       0.006900
     25 NAC         -9.1550    -0.1710    -1.7300 n2         1 YIT      -0.508400
     26 NAD        -10.5010     0.0110    -2.0710 nu         1 YIT      -0.132300
     27 CAY        -11.4890    -0.5460    -1.2920 c2         1 YIT       0.250100
     28 NAF        -11.1730    -1.2440    -0.2370 n2         1 YIT      -0.544100
     29 NAE        -12.8110    -0.3670    -1.6270 nz         1 YIT       0.123400
     30 HAA         -0.5830     0.0010     0.8140 hn         1 YIT       0.108700
     31 HAH          1.9950     0.0040     2.0480 ha         1 YIT       0.099000
     32 HAG          4.1080    -0.0180     1.6970 ha         1 YIT       0.130000
     33 HAK          3.4580    -0.0030    -2.6890 ha         1 YIT       0.122000
     34 HAF        -11.8910    -1.6490     0.3300 hn         1 YIT       0.337400
     35 HAO1         6.1540    -0.8830     0.8010 h1         1 YIT      -0.003300
     36 HAO2         7.3410    -0.0030    -0.1710 h1         1 YIT      -0.003300
     37 HAO3         6.1560     0.8860     0.7970 h1         1 YIT      -0.003300
     38 HAN          0.5920    -0.0020    -3.2250 ha         1 YIT       0.143000
     39 HAB         -2.6020    -0.0430     0.1710 hn         1 YIT       0.167500
     40 HAV         -4.8980    -1.1320     0.3960 ha         1 YIT       0.134000
     41 HAR         -3.7250     1.3790    -2.8720 ha         1 YIT       0.134000
     42 HAU         -7.2530    -0.9460    -0.2990 ha         1 YIT       0.117500
     43 HAS         -6.0760     1.5710    -3.5760 ha         1 YIT       0.117500
     44 HAX1        -9.5410     1.7440    -3.4480 hc         1 YIT       0.034200
     45 HAX2        -7.8250     2.0060    -3.7840 hc         1 YIT       0.034200
     46 HAZ1        -9.5100    -0.3500    -4.7050 hc         1 YIT       0.018700
     47 HAZ2        -7.7650    -0.2090    -4.9530 hc         1 YIT       0.018700
     48 HBA1        -8.0680     1.8100    -6.2810 hc         1 YIT       0.009367
     49 HBA2        -9.1110     0.5400    -6.9360 hc         1 YIT       0.009367
     50 HBA3        -9.8020     1.8220    -5.9310 hc         1 YIT       0.009367
     51 HAD        -10.7460     0.6080    -2.8350 hn         1 YIT       0.280800
     52 HAE1       -12.9470     0.5660    -1.9640 hn         1 YIT       0.224467
     53 HAE2       -13.0660    -1.0200    -2.3410 hn         1 YIT       0.224467
     54 HAE3       -13.3830    -0.5160    -0.8190 hn         1 YIT       0.224467
@<TRIPOS>BOND
     1     1     2 1   
     2     1    11 1   
     3     1    30 1   
     4     2     3 ar  
     5     2     9 ar  
     6     3     4 ar  
     7     3    31 1   
     8     4     5 ar  
     9     4    32 1   
    10     5     6 1   
    11     5     8 ar  
    12     6     7 1   
    13     7    35 1   
    14     7    36 1   
    15     7    37 1   
    16     8     9 ar  
    17     8    33 1   
    18     9    10 1   
    19    10    11 2   
    20    10    38 1   
    21    11    12 1   
    22    12    13 2   
    23    12    14 1   
    24    14    15 1   
    25    14    39 1   
    26    15    16 ar  
    27    15    18 ar  
    28    16    17 ar  
    29    16    40 1   
    30    17    20 ar  
    31    17    42 1   
    32    18    19 ar  
    33    18    41 1   
    34    19    20 ar  
    35    19    43 1   
    36    20    21 1   
    37    21    22 1   
    38    21    25 2   
    39    22    23 1   
    40    22    44 1   
    41    22    45 1   
    42    23    24 1   
    43    23    46 1   
    44    23    47 1   
    45    24    48 1   
    46    24    49 1   
    47    24    50 1   
    48    25    26 1   
    49    26    27 1   
    50    26    51 1   
    51    27    28 2   
    52    27    29 1   
    53    28    34 1   
    54    29    52 1   
    55    29    53 1   
    56    29    54 1   
@<TRIPOS>SUBSTRUCTURE
     1 YIT         1 TEMP              0 ****  ****    0 ROOT
