@<TRIPOS>MOLECULE
molecule
   18    17     1     0     0
SMALL
bcc


@<TRIPOS>ATOM
      1 C            0.0000     0.0000     0.0000 c          1 YIV       0.654900
      2 N            1.3480     0.0000     0.0000 ns         1 YIV      -0.598900
      3 C1           2.0810     0.0000     1.2690 c3         1 YIV       0.106000
      4 O1          -0.6060     0.0050     1.0500 o          1 YIV      -0.612100
      5 C2           3.5850     0.0010     0.9880 c3         1 YIV      -0.101400
      6 C3           4.3500    -0.0000     2.3130 c3         1 YIV      -0.080400
      7 C4           5.8540     0.0000     2.0330 c3         1 YIV      -0.092100
      8 H1           1.8200    -0.8850     1.8370 h1         1 YIV       0.054200
      9 H1A          1.8190     0.8840     1.8370 h1         1 YIV       0.054200
     10 H2           3.8470    -0.8830     0.4190 hc         1 YIV       0.044700
     11 H2A          3.8460     0.8860     0.4210 hc         1 YIV       0.044700
     12 H3           4.0880     0.8840     2.8820 hc         1 YIV       0.045200
     13 H3A          4.0880    -0.8850     2.8810 hc         1 YIV       0.045200
     14 H4           6.1150     0.8850     1.4650 hc         1 YIV       0.034700
     15 H4A          6.1160    -0.8840     1.4640 hc         1 YIV       0.034700
     16 H4B          6.3960    -0.0010     2.9710 hc         1 YIV       0.034700
     17 H           -0.5420    -0.0030    -0.9380 h5         1 YIV       0.021200
     18 HN           1.8490    -0.0010    -0.8670 hn         1 YIV       0.311500
@<TRIPOS>BOND
     1     2     1 1
     2     4     1 2
     3     1    17 1
     4     2     3 1
     5     2    18 1
     6     5     3 1
     7     8     3 1
     8     3     9 1
     9    10     5 1
    10     6     5 1
    11     5    11 1
    12     7     6 1
    13    12     6 1
    14     6    13 1
    15    14     7 1
    16    15     7 1
    17     7    16 1
@<TRIPOS>SUBSTRUCTURE
     1 YIV         1 TEMP              0 ****  ****    0 ROOT
