@<TRIPOS>MOLECULE
YIW
   72    76     1     0     0
SMALL
bcc


@<TRIPOS>ATOM
      1 C1           0.0000     0.0000     0.0000 c3         1 YIW       0.005900
      2 C2           1.5300     0.0000     0.0000 c3         1 YIW      -0.019000
      3 C3           2.0400     0.0000     1.4420 c3         1 YIW       0.005900
      4 C4           2.0320    -1.2310    -0.7110 cc         1 YIW       0.070800
      5 N5           1.7920    -2.4720    -0.3720 nd         1 YIW      -0.286700
      6 N6           2.3710    -3.2770    -1.1920 nd         1 YIW      -0.074000
      7 C7           3.0210    -2.5800    -2.1110 cc         1 YIW      -0.272300
      8 C8           3.8070    -2.9410    -3.2220 cc         1 YIW      -0.015000
      9 C9           4.3540    -1.9680    -3.9960 cd         1 YIW      -0.111000
     10 C10          4.1300    -0.6120    -3.6780 cd         1 YIW       0.029900
     11 S11          4.8370     0.6550    -4.6770 ss         1 YIW      -0.264800
     12 C12          6.5660     0.4570    -4.4030 ca         1 YIW       0.061900
     13 C13          7.0220    -0.4560    -3.4580 ca         1 YIW      -0.123000
     14 C14          8.3780    -0.6090    -3.2460 ca         1 YIW      -0.076000
     15 C15          9.2830     0.1460    -3.9710 ca         1 YIW      -0.098000
     16 C16          8.8330     1.0550    -4.9120 ca         1 YIW      -0.072000
     17 C17          7.4780     1.2080    -5.1340 ca         1 YIW      -0.095300
     18 C18          6.9900     2.1930    -6.1640 c3         1 YIW       0.118300
     19 N19          6.5650     3.4270    -5.4970 ns         1 YIW      -0.212900
     20 C20          6.0880     4.4570    -6.2230 c          1 YIW       0.568100
     21 O21          6.0100     4.3620    -7.4330 o          1 YIW      -0.681100
     22 N22          5.6980     5.5910    -5.6090 ns         1 YIW      -0.025100
     23 C23          5.2030     6.6570    -6.3610 cc         1 YIW      -0.230700
     24 C24          5.0610     6.6890    -7.7140 cd         1 YIW      -0.334300
     25 C25          4.5330     7.9370    -8.0600 cd         1 YIW       0.392600
     26 N26          4.3620     8.6320    -6.9650 nc         1 YIW      -0.655800
     27 N27          4.7700     7.8520    -5.8770 na         1 YIW       0.577300
     28 C28          4.7410     8.2350    -4.5280 ca         1 YIW      -0.125200
     29 C29          4.9910     9.5540    -4.1740 ca         1 YIW      -0.115000
     30 C30          4.9600     9.9270    -2.8450 ca         1 YIW      -0.080500
     31 C31          4.6810     8.9900    -1.8680 ca         1 YIW      -0.104000
     32 C32          4.4310     7.6760    -2.2170 ca         1 YIW      -0.080500
     33 C33          4.4550     7.2970    -3.5450 ca         1 YIW      -0.115000
     34 C34          4.2160     8.4020    -9.4580 c3         1 YIW      -0.081300
     35 C35          2.9350     7.7200    -9.9440 c3         1 YIW       0.006900
     36 C36          4.0170     9.9190    -9.4580 c3         1 YIW       0.006900
     37 C37          5.3730     8.0380   -10.3920 c3         1 YIW       0.006900
     38 C38          3.3700    -0.2810    -2.6040 cc         1 YIW      -0.197300
     39 N39          2.8130    -1.2540    -1.8240 na         1 YIW       0.489800
     40 H11C        -0.3610    -0.8280     0.5980 hc         1 YIW       0.011367
     41 H12C        -0.3610    -0.1040    -1.0160 hc         1 YIW       0.011367
     42 H13C        -0.3610     0.9320     0.4180 hc         1 YIW       0.011367
     43 H2           1.8910     0.8850    -0.5110 hc         1 YIW       0.014700
     44 H31C         3.1180    -0.1050     1.4440 hc         1 YIW       0.011367
     45 H32C         1.7660     0.9320     1.9220 hc         1 YIW       0.011367
     46 H33C         1.5960    -0.8280     1.9820 hc         1 YIW       0.011367
     47 H8           3.9730    -3.9850    -3.4580 ha         1 YIW       0.132000
     48 H9           4.8700    -2.2310    -4.9120 ha         1 YIW       0.137000
     49 H38          3.2020     0.7620    -2.3650 h4         1 YIW       0.155000
     50 H13          6.3140    -1.0470    -2.8900 ha         1 YIW       0.123000
     51 H14          8.7330    -1.3200    -2.5100 ha         1 YIW       0.108000
     52 H15         10.3460     0.0260    -3.8010 ha         1 YIW       0.109000
     53 H16          9.5440     1.6420    -5.4800 ha         1 YIW       0.114000
     54 H22          5.7920     5.6800    -4.6170 hn         1 YIW       0.169500
     55 H181         7.7900     2.4160    -6.8590 h1         1 YIW       0.040700
     56 H182         6.1520     1.7670    -6.7020 h1         1 YIW       0.040700
     57 H19          6.6490     3.5120    -4.5030 hn         1 YIW       0.171500
     58 H24          5.3120     5.8900    -8.4010 ha         1 YIW       0.195000
     59 H29          5.2090    10.2890    -4.9400 ha         1 YIW       0.121500
     60 H33          4.2590     6.2670    -3.8190 ha         1 YIW       0.121500
     61 H30          5.1550    10.9560    -2.5670 ha         1 YIW       0.106000
     62 H31          4.6590     9.2850    -0.8260 ha         1 YIW       0.106000
     63 H32          4.2100     6.9440    -1.4490 ha         1 YIW       0.106000
     64 H351         2.1340     7.9160    -9.2420 hc         1 YIW       0.007478
     65 H352         3.0990     6.6520   -10.0150 hc         1 YIW       0.007478
     66 H353         2.6660     8.1100   -10.9180 hc         1 YIW       0.007478
     67 H361         4.9070    10.4000    -9.0690 hc         1 YIW       0.007478
     68 H362         3.1680    10.1710    -8.8350 hc         1 YIW       0.007478
     69 H363         3.8360    10.2590   -10.4700 hc         1 YIW       0.007478
     70 H371         5.2330     8.5270   -11.3480 hc         1 YIW       0.007478
     71 H372         5.3970     6.9650   -10.5350 hc         1 YIW       0.007478
     72 H373         6.3080     8.3650    -9.9530 hc         1 YIW       0.007478
@<TRIPOS>BOND
     1     1     2 1   
     2     1    40 1   
     3     1    41 1   
     4     1    42 1   
     5     2     3 1   
     6     2     4 1   
     7     2    43 1   
     8     3    44 1   
     9     3    45 1   
    10     3    46 1   
    11     4     5 2   
    12     4    39 1   
    13     5     6 1   
    14     6     7 2   
    15     7     8 1   
    16     7    39 1   
    17     8     9 2   
    18     8    47 1   
    19     9    10 1   
    20     9    48 1   
    21    10    11 1   
    22    10    38 2   
    23    11    12 1   
    24    12    13 ar  
    25    12    17 ar  
    26    13    14 ar  
    27    13    50 1   
    28    14    15 ar  
    29    14    51 1   
    30    15    16 ar  
    31    15    52 1   
    32    16    17 ar  
    33    16    53 1   
    34    17    18 1   
    35    18    19 1   
    36    18    55 1   
    37    18    56 1   
    38    19    20 1   
    39    19    57 1   
    40    20    21 2   
    41    20    22 1   
    42    22    23 1   
    43    22    54 1   
    44    23    24 2   
    45    23    27 1   
    46    24    25 1   
    47    24    58 1   
    48    25    26 2   
    49    25    34 1   
    50    26    27 1   
    51    27    28 1   
    52    28    29 ar  
    53    28    33 ar  
    54    29    30 ar  
    55    29    59 1   
    56    30    31 ar  
    57    30    61 1   
    58    31    32 ar  
    59    31    62 1   
    60    32    33 ar  
    61    32    63 1   
    62    33    60 1   
    63    34    35 1   
    64    34    36 1   
    65    34    37 1   
    66    35    64 1   
    67    35    65 1   
    68    35    66 1   
    69    36    67 1   
    70    36    68 1   
    71    36    69 1   
    72    37    70 1   
    73    37    71 1   
    74    37    72 1   
    75    38    39 1   
    76    38    49 1   
@<TRIPOS>SUBSTRUCTURE
     1 YIW         1 TEMP              0 ****  ****    0 ROOT
