@<TRIPOS>MOLECULE
YIX
   49    51     1     0     0
SMALL
bcc


@<TRIPOS>ATOM
      1 C1           0.0000     0.0000     0.0000 c3         1 YIX      -0.009100
      2 C2           1.5310     0.0000     0.0000 c3         1 YIX       0.067000
      3 N3           2.0190     0.0000     1.3810 ns         1 YIX      -0.223900
      4 C4           3.3430     0.0010     1.6280 c          1 YIX       0.580100
      5 O5           4.1330     0.0000     0.7040 o          1 YIX      -0.707100
      6 N6           3.7920     0.0000     2.8990 ns         1 YIX      -0.218900
      7 C7           5.2320     0.0000     3.1670 c3         1 YIX       0.120300
      8 C8           5.4670     0.0000     4.6560 ca         1 YIX      -0.091300
      9 C9           5.7780     1.1770     5.3060 ca         1 YIX      -0.074000
     10 C10          5.9940     1.1780     6.6730 ca         1 YIX      -0.100000
     11 C11          5.8960     0.0010     7.3920 ca         1 YIX      -0.079000
     12 C12          5.5850    -1.1800     6.7480 ca         1 YIX      -0.124000
     13 C13          5.3630    -1.1840     5.3760 ca         1 YIX       0.062900
     14 S14          4.9570    -2.6870     4.5510 ss         1 YIX      -0.262800
     15 C15          4.7810    -3.8320     5.8780 cc         1 YIX       0.025900
     16 C16          3.7260    -3.6810     6.8020 cc         1 YIX      -0.111000
     17 C17          3.5930    -4.5680     7.8240 cd         1 YIX      -0.018000
     18 C18          4.5150    -5.6260     7.9450 cd         1 YIX      -0.271300
     19 N19          4.6480    -6.6210     8.8070 nc         1 YIX      -0.075000
     20 N20          5.6690    -7.3350     8.4830 nc         1 YIX      -0.288700
     21 C21          6.2420    -6.8480     7.4130 cd         1 YIX       0.073800
     22 C22          7.4620    -7.4030     6.7250 c3         1 YIX      -0.020000
     23 C23          8.6420    -7.4000     7.6990 c3         1 YIX       0.005900
     24 C24          7.1830    -8.8360     6.2670 c3         1 YIX       0.005900
     25 N25          5.5330    -5.7510     7.0330 na         1 YIX       0.486800
     26 C26          5.6570    -4.8590     6.0050 cd         1 YIX      -0.192300
     27 H11C        -0.3610    -0.8850     0.5100 hc         1 YIX       0.006367
     28 H12C        -0.3610     0.0010    -1.0210 hc         1 YIX       0.006367
     29 H13C        -0.3610     0.8840     0.5110 hc         1 YIX       0.006367
     30 H21C         1.8920     0.8850    -0.5110 h1         1 YIX       0.023700
     31 H22C         1.8920    -0.8850    -0.5110 h1         1 YIX       0.023700
     32 H3           1.3680    -0.0030     2.1420 hn         1 YIX       0.166500
     33 H6           3.1420     0.0420     3.6590 hn         1 YIX       0.170500
     34 H71C         5.6810     0.8850     2.7310 h1         1 YIX       0.036700
     35 H72C         5.6810    -0.8840     2.7310 h1         1 YIX       0.036700
     36 H9           5.8550     2.1010     4.7460 ha         1 YIX       0.114000
     37 H10          6.2380     2.1030     7.1810 ha         1 YIX       0.108000
     38 H11          6.0680     0.0050     8.4620 ha         1 YIX       0.108000
     39 H12          5.5070    -2.1010     7.3120 ha         1 YIX       0.122000
     40 H16          2.9690    -2.9240     6.6400 ha         1 YIX       0.133000
     41 H26          6.4600    -4.9740     5.2870 h4         1 YIX       0.158000
     42 H17          2.7870    -4.4600     8.5390 ha         1 YIX       0.130000
     43 H22          7.7020    -6.7900     5.8650 hc         1 YIX       0.016700
     44 H231         8.4340    -8.0740     8.5210 hc         1 YIX       0.011200
     45 H232         8.7910    -6.3980     8.0830 hc         1 YIX       0.011200
     46 H233         9.5370    -7.7260     7.1830 hc         1 YIX       0.011200
     47 H241         7.0190    -9.4660     7.1330 hc         1 YIX       0.011200
     48 H242         6.3000    -8.8490     5.6390 hc         1 YIX       0.011200
     49 H243         8.0310    -9.2070     5.7050 hc         1 YIX       0.011200
@<TRIPOS>BOND
     1     1     2 1   
     2     1    27 1   
     3     1    28 1   
     4     1    29 1   
     5     2     3 1   
     6     2    30 1   
     7     2    31 1   
     8     3     4 1   
     9     3    32 1   
    10     4     5 2   
    11     4     6 1   
    12     6     7 1   
    13     6    33 1   
    14     7     8 1   
    15     7    34 1   
    16     7    35 1   
    17     8     9 ar  
    18     8    13 ar  
    19     9    10 ar  
    20     9    36 1   
    21    10    11 ar  
    22    10    37 1   
    23    11    12 ar  
    24    11    38 1   
    25    12    13 ar  
    26    12    39 1   
    27    13    14 1   
    28    14    15 1   
    29    15    16 1   
    30    15    26 2   
    31    16    17 2   
    32    16    40 1   
    33    17    18 1   
    34    17    42 1   
    35    18    19 2   
    36    18    25 1   
    37    19    20 1   
    38    20    21 2   
    39    21    22 1   
    40    21    25 1   
    41    22    23 1   
    42    22    24 1   
    43    22    43 1   
    44    23    44 1   
    45    23    45 1   
    46    23    46 1   
    47    24    47 1   
    48    24    48 1   
    49    24    49 1   
    50    25    26 1   
    51    26    41 1   
@<TRIPOS>SUBSTRUCTURE
     1 YIX         1 TEMP              0 ****  ****    0 ROOT
