@<TRIPOS>MOLECULE
YIY
   57    60     1     0     0
SMALL
bcc


@<TRIPOS>ATOM
      1 CAR          0.0000     0.0000     0.0000 ca         1 YIY       0.356200
      2 CAO          1.3830     0.0000     0.0000 ca         1 YIY      -0.178300
      3 NBG         -0.6770    -0.0010     1.1310 nb         1 YIY      -0.549000
      4 CAT         -0.0720    -0.0020     2.3020 ca         1 YIY       0.364200
      5 CAQ          1.3130    -0.0010     2.3830 ca         1 YIY       0.028800
      6 OAY          1.9330     0.0000     3.5930 os         1 YIY      -0.211200
      7 CBC          3.2880    -0.1010     3.6170 ca         1 YIY       0.072100
      8 CAJ          4.0700     0.9960     3.2870 ca         1 YIY      -0.102500
      9 CAH          5.4470     0.8950     3.3100 ca         1 YIY      -0.113000
     10 CAK          3.8890    -1.2990     3.9740 ca         1 YIY      -0.102500
     11 CAI          5.2650    -1.4010     3.9980 ca         1 YIY      -0.113000
     12 CBB          6.0490    -0.3050     3.6630 ca         1 YIY      -0.076400
     13 NAV          7.4460    -0.4090     3.6860 ns         1 YIY      -0.017100
     14 CAZ          8.0410    -1.5630     3.3250 c          1 YIY       0.709500
     15 OAE          7.3660    -2.5390     3.0560 o          1 YIY      -0.722100
     16 NAW          9.3770    -1.6350     3.2620 ne         1 YIY      -0.763100
     17 CBE          9.9640    -2.7720     2.9060 cd         1 YIY       0.601500
     18 CAN          9.3160    -3.9800     2.5670 cd         1 YIY      -0.358600
     19 CBF         10.2610    -4.8970     2.2650 cc         1 YIY      -0.017200
     20 CBI          9.9970    -6.3210     1.8500 c3         1 YIY       0.003200
     21 CAD         10.5800    -6.5620     0.4570 c3         1 YIY       0.004900
     22 CAB         10.6550    -7.2730     2.8500 c3         1 YIY       0.004900
     23 CAC          8.4870    -6.5730     1.8220 c3         1 YIY       0.004900
     24 NAU         11.4930    -4.3240     2.3970 na         1 YIY      -0.186800
     25 NBH         11.3190    -2.9910     2.7930 na         1 YIY      -0.033800
     26 CBD         12.3320    -2.0580     3.0310 ca         1 YIY       0.039600
     27 CAL         12.0080    -0.7650     3.4240 ca         1 YIY      -0.143000
     28 CAF         13.0110     0.1550     3.6590 ca         1 YIY      -0.043000
     29 C18          2.0590     0.0000     1.2090 ca         1 YIY      -0.172000
     30 CBA         14.3360    -0.2080     3.5040 ca         1 YIY      -0.149000
     31 CAG         14.6620    -1.4950     3.1120 ca         1 YIY       0.135900
     32 CAM         13.6620    -2.4230     2.8810 ca         1 YIY      -0.192000
     33 HAR         -0.5340     0.0000    -0.9420 h4         1 YIY      -0.019900
     34 HAO          1.9310     0.0010    -0.9340 ha         1 YIY       0.110000
     35 H18          3.1420     0.0000     1.2390 ha         1 YIY       0.136000
     36 HAT         -0.6620    -0.0020     3.2110 h4         1 YIY      -0.009900
     37 HAK          3.2770    -2.1540     4.2360 ha         1 YIY       0.116000
     38 HAJ          3.6010     1.9330     3.0120 ha         1 YIY       0.116000
     39 HAI          5.7340    -2.3380     4.2760 ha         1 YIY       0.131000
     40 HAH          6.0580     1.7510     3.0510 ha         1 YIY       0.131000
     41 HAV          7.9990     0.3630     3.9990 hn         1 YIY       0.168500
     42 HAN          8.3860    -3.9580     2.0120 ha         1 YIY       0.195000
     43 HAU         12.3700    -4.7770     2.2340 hn         1 YIY       0.331800
     44 HAC1         8.2990    -7.6080     1.5630 hc         1 YIY       0.012367
     45 HAC2         8.0680    -6.3640     2.7990 hc         1 YIY       0.012367
     46 HAC3         8.0260    -5.9260     1.0850 hc         1 YIY       0.012367
     47 HAD1        10.2310    -7.5150     0.0790 hc         1 YIY       0.012367
     48 HAD2        11.6620    -6.5710     0.5150 hc         1 YIY       0.012367
     49 HAD3        10.2610    -5.7700    -0.2100 hc         1 YIY       0.012367
     50 HAB1        11.7320    -7.2190     2.7450 hc         1 YIY       0.012367
     51 HAB2        10.3750    -6.9890     3.8570 hc         1 YIY       0.012367
     52 HAB3        10.3240    -8.2860     2.6550 hc         1 YIY       0.012367
     53 HAL         10.9700    -0.4790     3.5450 ha         1 YIY       0.179000
     54 HAM         13.9170    -3.4300     2.5740 ha         1 YIY       0.114000
     55 HAF         12.7580     1.1630     3.9650 ha         1 YIY       0.111000
     56 HBA         15.1200     0.5160     3.6900 ha         1 YIY       0.122000
     57 F32         15.9580    -1.8470     2.9630 f          1 YIY      -0.126900
@<TRIPOS>BOND
     1     1     2 ar  
     2     1     3 ar  
     3     1    33 1   
     4     2    29 ar  
     5     2    34 1   
     6     3     4 ar  
     7     4     5 ar  
     8     4    36 1   
     9     5     6 1   
    10     5    29 ar  
    11     6     7 1   
    12     7     8 ar  
    13     7    10 ar  
    14     8     9 ar  
    15     8    38 1   
    16     9    12 ar  
    17     9    40 1   
    18    10    11 ar  
    19    10    37 1   
    20    11    12 ar  
    21    11    39 1   
    22    12    13 1   
    23    13    14 1   
    24    13    41 1   
    25    14    15 2   
    26    14    16 1   
    27    16    17 2   
    28    17    18 1   
    29    17    25 1   
    30    18    19 2   
    31    18    42 1   
    32    19    20 1   
    33    19    24 1   
    34    20    21 1   
    35    20    22 1   
    36    20    23 1   
    37    21    47 1   
    38    21    48 1   
    39    21    49 1   
    40    22    50 1   
    41    22    51 1   
    42    22    52 1   
    43    23    44 1   
    44    23    45 1   
    45    23    46 1   
    46    24    25 1   
    47    24    43 1   
    48    25    26 1   
    49    26    27 ar  
    50    26    32 ar  
    51    27    28 ar  
    52    27    53 1   
    53    28    30 ar  
    54    28    55 1   
    55    29    35 1   
    56    30    31 ar  
    57    30    56 1   
    58    31    32 ar  
    59    31    57 1   
    60    32    54 1   
@<TRIPOS>SUBSTRUCTURE
     1 YIY         1 TEMP              0 ****  ****    0 ROOT
