@<TRIPOS>MOLECULE
YJ2
   60    64     1     0     0
SMALL
bcc


@<TRIPOS>ATOM
      1 C1           0.0000     0.0000     0.0000 c3         1 YJ2      -0.033300
      2 N2           1.4710     0.0000     0.0000 n          1 YJ2      -0.139800
      3 C3           1.9420     0.0000     1.3960 c3         1 YJ2       0.065000
      4 C4           0.7760     0.6120     2.2100 c3         1 YJ2      -0.050900
      5 C5          -0.4580     0.0280     1.4730 c3         1 YJ2      -0.001400
      6 C6          -0.5120     1.2220    -0.7190 c          1 YJ2       0.551100
      7 O7           0.2700     2.0210    -1.1900 o          1 YJ2      -0.611100
      8 S8           0.8250     0.0570     3.9360 sy         1 YJ2       0.883300
      9 C9          -0.6520     0.7040     4.6480 ca         1 YJ2      -0.152500
     10 C10         -0.8300     2.0730     4.7470 ca         1 YJ2       0.039400
     11 C11         -1.9900     2.5800     5.3050 ca         1 YJ2      -0.125000
     12 C12         -2.9690     1.7180     5.7650 ca         1 YJ2      -0.038000
     13 C13         -2.7890     0.3520     5.6670 ca         1 YJ2      -0.130000
     14 C14         -1.6330    -0.1550     5.1030 ca         1 YJ2       0.013000
     15 Cl1          0.4000     3.1530     4.1700 cl         1 YJ2       0.012600
     16 N16         -1.8390     1.4260    -0.8390 ns         1 YJ2      -0.147900
     17 C17         -2.3370     2.6140    -1.5370 cx         1 YJ2      -0.165900
     18 C18         -1.5030     3.0790    -2.7040 c2         1 YJ2       0.424200
     19 C19         -3.8530     2.7900    -1.6400 cx         1 YJ2      -0.066900
     20 C20         -3.0400     3.6840    -0.7000 cx         1 YJ2      -0.066900
     21 C21          2.2560    -0.0010    -1.0960 c          1 YJ2       0.668100
     22 O22          1.7580    -0.0880    -2.1980 o          1 YJ2      -0.617100
     23 C23          3.7520     0.1060    -0.9490 cx         1 YJ2      -0.173700
     24 C24          4.4500    -1.1430    -0.4780 ca         1 YJ2      -0.037300
     25 C25          4.3620    -1.5250     0.8480 ca         1 YJ2      -0.110500
     26 C26          5.0020    -2.6710     1.2810 ca         1 YJ2      -0.075000
     27 C27          5.7310    -3.4350     0.3880 ca         1 YJ2       0.033100
     28 C28          5.8180    -3.0520    -0.9390 ca         1 YJ2      -0.075000
     29 C29          5.1740    -1.9100    -1.3720 ca         1 YJ2      -0.110500
     30 Br3          6.6070    -5.0030     0.9800 br         1 YJ2      -0.130100
     31 C31          4.4970     0.9990    -1.9440 cx         1 YJ2      -0.050400
     32 C32          4.3230     1.4500    -0.4920 cx         1 YJ2      -0.050400
     33 O33          0.6630    -1.3510     4.0120 o          1 YJ2      -0.573300
     34 O34          1.8710     0.7140     4.6420 o          1 YJ2      -0.573300
     35 N35         -0.7630     2.2470    -3.3340 n2         1 YJ2      -0.595100
     36 H36          3.7910    -0.9260     1.5480 ha         1 YJ2       0.124500
     37 H37          4.9330    -2.9710     2.3190 ha         1 YJ2       0.118000
     38 H38          6.3870    -3.6520    -1.6390 ha         1 YJ2       0.118000
     39 H39          5.2430    -1.6100    -2.4100 ha         1 YJ2       0.124500
     40 H40          3.8750     1.5100    -2.6700 hc         1 YJ2       0.056450
     41 H41          5.4920     0.6680    -2.2150 hc         1 YJ2       0.056450
     42 H42          5.2120     1.3950     0.1240 hc         1 YJ2       0.056450
     43 H43          3.5950     2.2360    -0.3310 hc         1 YJ2       0.056450
     44 H44         -1.5300     4.1190    -3.0090 h4         1 YJ2      -0.007200
     45 H1          -0.3670    -0.8990    -0.4810 h1         1 YJ2       0.051700
     46 H51C        -1.3170     0.6780     1.5930 hc         1 YJ2       0.038700
     47 H52C        -0.6740    -0.9730     1.8250 hc         1 YJ2       0.038700
     48 H31C         2.1390    -1.0130     1.7260 h1         1 YJ2       0.047700
     49 H32C         2.8300     0.6140     1.4920 h1         1 YJ2       0.047700
     50 H4           0.7870     1.6940     2.1430 h1         1 YJ2       0.099700
     51 H16         -2.4830     0.7480    -0.4850 hn         1 YJ2       0.172500
     52 H14         -1.4930    -1.2270     5.0270 ha         1 YJ2       0.135000
     53 H11         -2.1310     3.6510     5.3830 ha         1 YJ2       0.121000
     54 H12         -3.8760     2.1150     6.2040 ha         1 YJ2       0.107000
     55 H13         -3.5580    -0.3220     6.0250 ha         1 YJ2       0.113000
     56 H191        -4.2090     3.2650    -2.5460 hc         1 YJ2       0.050700
     57 H192        -4.4460     2.0220    -1.1570 hc         1 YJ2       0.050700
     58 H201        -3.1360     3.4620     0.3560 hc         1 YJ2       0.050700
     59 H202        -2.8990     4.7050    -1.0330 hc         1 YJ2       0.050700
     60 H35         -0.7370     1.2870    -3.0520 hn         1 YJ2       0.328400
@<TRIPOS>BOND
     1     1     2 1   
     2     1     5 1   
     3     1     6 1   
     4     1    45 1   
     5     2     3 1   
     6     2    21 1   
     7     3     4 1   
     8     3    48 1   
     9     3    49 1   
    10     4     5 1   
    11     4     8 1   
    12     4    50 1   
    13     5    46 1   
    14     5    47 1   
    15     6     7 2   
    16     6    16 1   
    17     8     9 1   
    18     8    33 2   
    19     8    34 2   
    20     9    10 ar  
    21     9    14 ar  
    22    10    11 ar  
    23    10    15 1   
    24    11    12 ar  
    25    11    53 1   
    26    12    13 ar  
    27    12    54 1   
    28    13    14 ar  
    29    13    55 1   
    30    14    52 1   
    31    16    17 1   
    32    16    51 1   
    33    17    18 1   
    34    17    19 1   
    35    17    20 1   
    36    18    35 2   
    37    18    44 1   
    38    19    20 1   
    39    19    56 1   
    40    19    57 1   
    41    20    58 1   
    42    20    59 1   
    43    21    22 2   
    44    21    23 1   
    45    23    24 1   
    46    23    31 1   
    47    23    32 1   
    48    24    25 ar  
    49    24    29 ar  
    50    25    26 ar  
    51    25    36 1   
    52    26    27 ar  
    53    26    37 1   
    54    27    28 ar  
    55    27    30 1   
    56    28    29 ar  
    57    28    38 1   
    58    29    39 1   
    59    31    32 1   
    60    31    40 1   
    61    31    41 1   
    62    32    42 1   
    63    32    43 1   
    64    35    60 1   
@<TRIPOS>SUBSTRUCTURE
     1 YJ2         1 TEMP              0 ****  ****    0 ROOT
