@<TRIPOS>MOLECULE
molecule
   60    64     1     0     0
SMALL
bcc


@<TRIPOS>ATOM
      1 C1           0.0000     0.0000     0.0000 c3         1 YJ2       0.054700
      2 N2           1.4710     0.0000     0.0000 n          1 YJ2      -0.470800
      3 C3           1.9420     0.0000     1.3960 c3         1 YJ2       0.125000
      4 C4           0.7760     0.6120     2.2100 c3         1 YJ2      -0.221900
      5 C5          -0.4580     0.0280     1.4730 c3         1 YJ2      -0.066400
      6 C6          -0.5120     1.2220    -0.7190 c          1 YJ2       0.664100
      7 O7           0.2700     2.0210    -1.1900 o          1 YJ2      -0.570100
      8 S8           0.8250     0.0570     3.9360 sy         1 YJ2       1.203300
      9 C9          -0.6520     0.7040     4.6480 ca         1 YJ2      -0.290500
     10 C10         -0.8300     2.0730     4.7470 ca         1 YJ2       0.106400
     11 C11         -1.9900     2.5800     5.3050 ca         1 YJ2      -0.139000
     12 C12         -2.9690     1.7180     5.7650 ca         1 YJ2      -0.068000
     13 C13         -2.7890     0.3520     5.6670 ca         1 YJ2      -0.149000
     14 C14         -1.6330    -0.1550     5.1030 ca         1 YJ2      -0.020000
     15 Cl1          0.4000     3.1530     4.1700 cl         1 YJ2      -0.080400
     16 N16         -1.8390     1.4260    -0.8390 ns         1 YJ2      -0.547900
     17 C17         -2.3370     2.6140    -1.5370 cx         1 YJ2       0.026100
     18 C18         -1.5030     3.0790    -2.7040 c2         1 YJ2       0.457200
     19 C19         -3.8530     2.7900    -1.6400 cx         1 YJ2      -0.135900
     20 C20         -3.0400     3.6840    -0.7000 cx         1 YJ2      -0.135900
     21 C21          2.2560    -0.0010    -1.0960 c          1 YJ2       0.730100
     22 O22          1.7580    -0.0880    -2.1980 o          1 YJ2      -0.561100
     23 C23          3.7520     0.1060    -0.9490 cx         1 YJ2      -0.177700
     24 C24          4.4500    -1.1430    -0.4780 ca         1 YJ2      -0.035300
     25 C25          4.3620    -1.5250     0.8480 ca         1 YJ2      -0.124500
     26 C26          5.0020    -2.6710     1.2810 ca         1 YJ2      -0.100000
     27 C27          5.7310    -3.4350     0.3880 ca         1 YJ2      -0.017900
     28 C28          5.8180    -3.0520    -0.9390 ca         1 YJ2      -0.100000
     29 C29          5.1740    -1.9100    -1.3720 ca         1 YJ2      -0.124500
     30 Br3          6.6070    -5.0030     0.9800 br         1 YJ2      -0.095100
     31 C31          4.4970     0.9990    -1.9440 cx         1 YJ2      -0.104900
     32 C32          4.3230     1.4500    -0.4920 cx         1 YJ2      -0.104900
     33 O33          0.6630    -1.3510     4.0120 o          1 YJ2      -0.606800
     34 O34          1.8710     0.7140     4.6420 o          1 YJ2      -0.606800
     35 N35         -0.7630     2.2470    -3.3340 n2         1 YJ2      -0.742100
     36 H36          3.7910    -0.9260     1.5480 ha         1 YJ2       0.144000
     37 H37          4.9330    -2.9710     2.3190 ha         1 YJ2       0.146500
     38 H38          6.3870    -3.6520    -1.6390 ha         1 YJ2       0.146500
     39 H39          5.2430    -1.6100    -2.4100 ha         1 YJ2       0.144000
     40 H40          3.8750     1.5100    -2.6700 hc         1 YJ2       0.087200
     41 H41          5.4920     0.6680    -2.2150 hc         1 YJ2       0.087200
     42 H42          5.2120     1.3950     0.1240 hc         1 YJ2       0.087200
     43 H43          3.5950     2.2360    -0.3310 hc         1 YJ2       0.087200
     44 H44         -1.5300     4.1190    -3.0090 h4         1 YJ2      -0.035200
     45 H1          -0.3670    -0.8990    -0.4810 h1         1 YJ2       0.085700
     46 H51C        -1.3170     0.6780     1.5930 hc         1 YJ2       0.070200
     47 H52C        -0.6740    -0.9730     1.8250 hc         1 YJ2       0.070200
     48 H31C         2.1390    -1.0130     1.7260 h1         1 YJ2       0.067200
     49 H32C         2.8300     0.6140     1.4920 h1         1 YJ2       0.067200
     50 H4           0.7870     1.6940     2.1430 h1         1 YJ2       0.131700
     51 H16         -2.4830     0.7470    -0.4870 hn         1 YJ2       0.312500
     52 H14         -1.4930    -1.2270     5.0270 ha         1 YJ2       0.166000
     53 H11         -2.1310     3.6510     5.3830 ha         1 YJ2       0.152000
     54 H12         -3.8760     2.1150     6.2040 ha         1 YJ2       0.142000
     55 H13         -3.5580    -0.3220     6.0250 ha         1 YJ2       0.143000
     56 H191        -4.4460     2.0220    -1.1570 hc         1 YJ2       0.080700
     57 H192        -4.2090     3.2650    -2.5460 hc         1 YJ2       0.080700
     58 H201        -3.1360     3.4620     0.3560 hc         1 YJ2       0.080700
     59 H202        -2.8990     4.7050    -1.0330 hc         1 YJ2       0.080700
     60 H35         -0.2090     2.5560    -4.1080 hn         1 YJ2       0.403400
@<TRIPOS>BOND
     1     1     2 1
     2     1     5 1
     3     1     6 1
     4     2     3 1
     5     2    21 1
     6     3     4 1
     7     4     5 1
     8     4     8 1
     9     6     7 2
    10     6    16 1
    11     8     9 1
    12     8    33 2
    13     8    34 2
    14     9    10 ar
    15     9    14 ar
    16    10    11 ar
    17    10    15 1
    18    11    12 ar
    19    12    13 ar
    20    13    14 ar
    21    16    17 1
    22    17    18 1
    23    17    19 1
    24    17    20 1
    25    18    35 2
    26    19    20 1
    27    21    22 2
    28    21    23 1
    29    23    24 1
    30    23    31 1
    31    23    32 1
    32    24    25 ar
    33    24    29 ar
    34    25    26 ar
    35    26    27 ar
    36    27    28 ar
    37    27    30 1
    38    28    29 ar
    39    31    32 1
    40    25    36 1
    41    26    37 1
    42    28    38 1
    43    29    39 1
    44    31    40 1
    45    31    41 1
    46    32    42 1
    47    32    43 1
    48    18    44 1
    49     1    45 1
    50     5    46 1
    51     5    47 1
    52     3    48 1
    53     3    49 1
    54     4    50 1
    55    16    51 1
    56    14    52 1
    57    11    53 1
    58    12    54 1
    59    13    55 1
    60    19    56 1
    61    19    57 1
    62    20    58 1
    63    20    59 1
    64    35    60 1
@<TRIPOS>SUBSTRUCTURE
     1 YJ2         1 TEMP              0 ****  ****    0 ROOT
