@<TRIPOS>MOLECULE
YJ8
   60    64     1     0     0
SMALL
bcc


@<TRIPOS>ATOM
      1 C1           0.0000     0.0000     0.0000 c3         1 YJ8      -0.033300
      2 N2           1.4700     0.0000     0.0000 n          1 YJ8      -0.139800
      3 C3           1.9420     0.0000     1.3960 c3         1 YJ8       0.065000
      4 C4           0.7740     0.6120     2.2100 c3         1 YJ8      -0.050900
      5 C5          -0.4590     0.0270     1.4730 c3         1 YJ8      -0.001400
      6 C6          -0.5120     1.2210    -0.7200 c          1 YJ8       0.552100
      7 O7           0.2690     2.0200    -1.1900 o          1 YJ8      -0.611100
      8 S8           0.8230     0.0570     3.9370 sy         1 YJ8       0.883300
      9 C9          -0.6540     0.7020     4.6480 ca         1 YJ8      -0.152500
     10 C10         -0.8340     2.0700     4.7460 ca         1 YJ8       0.040400
     11 C11         -1.9940     2.5770     5.3050 ca         1 YJ8      -0.125000
     12 C12         -2.9720     1.7150     5.7630 ca         1 YJ8      -0.039000
     13 C13         -2.7920     0.3480     5.6650 ca         1 YJ8      -0.130000
     14 C14         -1.6350    -0.1580     5.1020 ca         1 YJ8       0.013000
     15 Cl           0.3960     3.1520     4.1700 cl         1 YJ8       0.011600
     16 N16         -1.8390     1.4260    -0.8400 ns         1 YJ8      -0.148900
     17 C17         -2.3370     2.6130    -1.5390 cx         1 YJ8      -0.165900
     18 C18         -1.5030     3.0790    -2.7050 c2         1 YJ8       0.424200
     19 C19         -3.8540     2.7890    -1.6410 cx         1 YJ8      -0.066900
     20 C20         -3.0400     3.6830    -0.7020 cx         1 YJ8      -0.066900
     21 C21          2.2560    -0.0020    -1.0950 c          1 YJ8       0.667100
     22 O22          1.7590    -0.0880    -2.1970 o          1 YJ8      -0.617100
     23 C23          3.7520     0.1070    -0.9490 cx         1 YJ8      -0.171700
     24 C24          4.4500    -1.1420    -0.4770 ca         1 YJ8      -0.042300
     25 C25          4.3590    -1.5270     0.8480 ca         1 YJ8      -0.109500
     26 C26          5.0000    -2.6720     1.2810 ca         1 YJ8      -0.077000
     27 C27          5.7330    -3.4330     0.3890 ca         1 YJ8       0.199900
     28 C28          5.8240    -3.0490    -0.9360 ca         1 YJ8      -0.077000
     29 C29          5.1790    -1.9050    -1.3700 ca         1 YJ8      -0.109500
     30 I30          6.7050    -5.1690     1.0460 i          1 YJ8      -0.293900
     31 C31          4.4960     1.0000    -1.9430 cx         1 YJ8      -0.050900
     32 C32          4.3220     1.4510    -0.4910 cx         1 YJ8      -0.050900
     33 O33          0.6620    -1.3530     4.0110 o          1 YJ8      -0.573300
     34 O34          1.8680     0.7130     4.6410 o          1 YJ8      -0.573300
     35 N35         -0.7620     2.2470    -3.3340 n2         1 YJ8      -0.595100
     36 H1          -0.3660    -0.8990    -0.4810 h1         1 YJ8       0.051700
     37 H3           2.8290     0.6140     1.4930 h1         1 YJ8       0.047700
     38 H3A          2.1390    -1.0130     1.7260 h1         1 YJ8       0.047700
     39 H4           0.7840     1.6930     2.1430 h1         1 YJ8       0.099700
     40 H5          -1.3180     0.6760     1.5930 hc         1 YJ8       0.039200
     41 H5A         -0.6730    -0.9750     1.8240 hc         1 YJ8       0.039200
     42 H11         -2.1360     3.6480     5.3820 ha         1 YJ8       0.121000
     43 H12         -3.8790     2.1120     6.2030 ha         1 YJ8       0.107000
     44 H13         -3.5600    -0.3260     6.0230 ha         1 YJ8       0.113000
     45 H14         -1.4940    -1.2290     5.0260 ha         1 YJ8       0.135000
     46 HN16        -2.4840     0.7460    -0.4880 hn         1 YJ8       0.172500
     47 H19         -4.4470     2.0210    -1.1580 hc         1 YJ8       0.050950
     48 H19A        -4.2100     3.2640    -2.5470 hc         1 YJ8       0.050950
     49 H20         -3.1370     3.4610     0.3540 hc         1 YJ8       0.050950
     50 H20A        -2.9000     4.7040    -1.0340 hc         1 YJ8       0.050950
     51 H25          3.7840    -0.9310     1.5460 ha         1 YJ8       0.125500
     52 H26          4.9270    -2.9740     2.3190 ha         1 YJ8       0.120000
     53 H28          6.3970    -3.6460    -1.6350 ha         1 YJ8       0.120000
     54 H29          5.2510    -1.6040    -2.4080 ha         1 YJ8       0.125500
     55 H31          5.4910     0.6700    -2.2140 hc         1 YJ8       0.056450
     56 H31A         3.8740     1.5110    -2.6690 hc         1 YJ8       0.056450
     57 H32          3.5940     2.2370    -0.3300 hc         1 YJ8       0.056450
     58 H32A         5.2110     1.3960     0.1250 hc         1 YJ8       0.056450
     59 H35         -0.7360     1.2870    -3.0520 hn         1 YJ8       0.328400
     60 H18         -1.5310     4.1180    -3.0100 h4         1 YJ8      -0.007200
@<TRIPOS>BOND
     1     1     2 1   
     2     1     5 1   
     3     1     6 1   
     4     1    36 1   
     5     2     3 1   
     6     2    21 1   
     7     3     4 1   
     8     3    37 1   
     9     3    38 1   
    10     4     5 1   
    11     4     8 1   
    12     4    39 1   
    13     5    40 1   
    14     5    41 1   
    15     6     7 2   
    16     6    16 1   
    17     8     9 1   
    18     8    33 2   
    19     8    34 2   
    20     9    10 ar  
    21     9    14 ar  
    22    10    11 ar  
    23    10    15 1   
    24    11    12 ar  
    25    11    42 1   
    26    12    13 ar  
    27    12    43 1   
    28    13    14 ar  
    29    13    44 1   
    30    14    45 1   
    31    16    17 1   
    32    16    46 1   
    33    17    18 1   
    34    17    19 1   
    35    17    20 1   
    36    18    35 2   
    37    18    60 1   
    38    19    20 1   
    39    19    47 1   
    40    19    48 1   
    41    20    49 1   
    42    20    50 1   
    43    21    22 2   
    44    21    23 1   
    45    23    24 1   
    46    23    31 1   
    47    23    32 1   
    48    24    25 ar  
    49    24    29 ar  
    50    25    26 ar  
    51    25    51 1   
    52    26    27 ar  
    53    26    52 1   
    54    27    28 ar  
    55    27    30 1   
    56    28    29 ar  
    57    28    53 1   
    58    29    54 1   
    59    31    32 1   
    60    31    55 1   
    61    31    56 1   
    62    32    57 1   
    63    32    58 1   
    64    35    59 1   
@<TRIPOS>SUBSTRUCTURE
     1 YJ8         1 TEMP              0 ****  ****    0 ROOT
