@<TRIPOS>MOLECULE
molecule
   63    67     1     0     0
SMALL
bcc


@<TRIPOS>ATOM
      1 C1           0.0000     0.0000     0.0000 c3         1 YJ9       0.052700
      2 C2          -0.5120     1.2220    -0.7200 c          1 YJ9       0.664100
      3 N3          -1.8380     1.4260    -0.8400 ns         1 YJ9      -0.548900
      4 C4          -2.3370     2.6130    -1.5400 cx         1 YJ9       0.026100
      5 C5          -1.5020     3.0770    -2.7060 c2         1 YJ9       0.456200
      6 O6           0.2700     2.0190    -1.1910 o          1 YJ9      -0.568100
      7 C7          -3.8530     2.7890    -1.6410 cx         1 YJ9      -0.135900
      8 C8          -3.0380     3.6840    -0.7030 cx         1 YJ9      -0.135900
      9 N9          -0.7620     2.2440    -3.3350 n2         1 YJ9      -0.740100
     10 N10          1.4710     0.0000     0.0000 n          1 YJ9      -0.473800
     11 C11          1.9430     0.0000     1.3960 c3         1 YJ9       0.128000
     12 C12          0.7770     0.6140     2.2100 c3         1 YJ9      -0.219900
     13 C13         -0.4580     0.0290     1.4740 c3         1 YJ9      -0.068400
     14 S14          0.8260     0.0610     3.9360 sy         1 YJ9       1.204300
     15 C15         -0.3560     1.0770     4.7580 ca         1 YJ9      -0.292500
     16 C16         -0.1170     2.4300     4.9110 ca         1 YJ9       0.108400
     17 C17         -1.0460     3.2280     5.5550 ca         1 YJ9      -0.139000
     18 C18         -2.2120     2.6720     6.0470 ca         1 YJ9      -0.067000
     19 C19         -2.4510     1.3180     5.8940 ca         1 YJ9      -0.149000
     20 C20         -1.5250     0.5220     5.2450 ca         1 YJ9      -0.020000
     21 Cl           1.3480     3.1290     4.2930 cl         1 YJ9      -0.079400
     22 O22          0.3000    -1.2540     4.0540 o          1 YJ9      -0.606800
     23 O23          2.0660     0.4100     4.5360 o          1 YJ9      -0.606800
     24 C24          2.2560    -0.0020    -1.0950 c          1 YJ9       0.724100
     25 O25          1.7550    -0.0240    -2.2000 o          1 YJ9      -0.553100
     26 C26          4.5140     1.1620    -1.6270 cx         1 YJ9      -0.108400
     27 C27          3.7560     0.0210    -0.9470 cx         1 YJ9      -0.173700
     28 C28          4.3640     1.1430    -0.1040 cx         1 YJ9      -0.108400
     29 C29          5.9530    -2.9190    -1.8300 ca         1 YJ9      -0.078500
     30 C30          5.6530    -3.8030    -0.8090 ca         1 YJ9      -0.180300
     31 C31          4.7400    -3.4500     0.1650 ca         1 YJ9      -0.078500
     32 C32          4.1250    -2.2120     0.1210 ca         1 YJ9      -0.125000
     33 C33          4.4250    -1.3280    -0.8990 ca         1 YJ9      -0.012300
     34 C34          5.3390    -1.6820    -1.8740 ca         1 YJ9      -0.125000
     35 F36          7.5050    -5.0610    -0.0180 f          1 YJ9      -0.223633
     36 F37          5.4630    -6.0780    -0.1590 f          1 YJ9      -0.223633
     37 F38          6.6220    -5.5720    -2.0620 f          1 YJ9      -0.223633
     38 H1          -0.3670    -0.8990    -0.4810 h1         1 YJ9       0.085700
     39 HN3         -2.4830     0.7470    -0.4870 hn         1 YJ9       0.313500
     40 H7          -4.4460     2.0230    -1.1570 hc         1 YJ9       0.080700
     41 H7A         -4.2090     3.2640    -2.5470 hc         1 YJ9       0.080700
     42 H8          -3.1340     3.4630     0.3530 hc         1 YJ9       0.080700
     43 H8A         -2.8960     4.7050    -1.0360 hc         1 YJ9       0.080700
     44 H11          2.8310     0.6130     1.4920 h1         1 YJ9       0.063200
     45 H11A         2.1390    -1.0130     1.7260 h1         1 YJ9       0.063200
     46 H12          0.7880     1.6950     2.1420 h1         1 YJ9       0.127700
     47 H13         -1.3170     0.6790     1.5940 hc         1 YJ9       0.073200
     48 H13A        -0.6730    -0.9720     1.8260 hc         1 YJ9       0.073200
     49 H17         -0.8590     4.2890     5.6750 ha         1 YJ9       0.152000
     50 H18         -2.9380     3.2960     6.5530 ha         1 YJ9       0.142000
     51 H19         -3.3660     0.8830     6.2770 ha         1 YJ9       0.143000
     52 H20         -1.7120    -0.5380     5.1250 ha         1 YJ9       0.165000
     53 H26          5.4990     0.9110    -2.0020 hc         1 YJ9       0.087450
     54 H26A         3.9010     1.8870    -2.1480 hc         1 YJ9       0.087450
     55 H28          3.6590     1.8560     0.3050 hc         1 YJ9       0.087450
     56 H28A         5.2570     0.8800     0.4500 hc         1 YJ9       0.087450
     57 H29          6.6690    -3.1960    -2.5940 ha         1 YJ9       0.149000
     58 H31          4.5060    -4.1430     0.9640 ha         1 YJ9       0.149000
     59 H32          3.4090    -1.9350     0.8860 ha         1 YJ9       0.142500
     60 H34          5.5740    -0.9890    -2.6730 ha         1 YJ9       0.142500
     61 H5          -1.5280     4.1160    -3.0110 h4         1 YJ9      -0.035200
     62 H9          -0.2080     2.5520    -4.1090 hn         1 YJ9       0.403400
     63 C35          6.3230    -5.1530    -0.7610 c3         1 YJ9       0.673200
@<TRIPOS>BOND
     1     1     2 1
     2     1    10 1
     3     1    13 1
     4     1    38 1
     5     2     3 1
     6     2     6 2
     7     3     4 1
     8     3    39 1
     9     4     5 1
    10     4     7 1
    11     4     8 1
    12     5     9 2
    13     7     8 1
    14     7    40 1
    15     7    41 1
    16     8    42 1
    17     8    43 1
    18    10    11 1
    19    10    24 1
    20    11    12 1
    21    11    44 1
    22    11    45 1
    23    12    13 1
    24    12    14 1
    25    12    46 1
    26    13    47 1
    27    13    48 1
    28    14    15 1
    29    14    22 2
    30    14    23 2
    31    15    16 ar
    32    15    20 ar
    33    16    17 ar
    34    16    21 1
    35    17    18 ar
    36    17    49 1
    37    18    19 ar
    38    18    50 1
    39    19    20 ar
    40    19    51 1
    41    20    52 1
    42    24    25 2
    43    24    27 1
    44    26    27 1
    45    26    28 1
    46    26    53 1
    47    26    54 1
    48    27    28 1
    49    27    33 1
    50    28    55 1
    51    28    56 1
    52    29    30 ar
    53    29    34 ar
    54    29    57 1
    55    30    31 ar
    56    30    63 1
    57    31    32 ar
    58    31    58 1
    59    32    33 ar
    60    32    59 1
    61    33    34 ar
    62    34    60 1
    63    63    35 1
    64    63    36 1
    65    63    37 1
    66     5    61 1
    67     9    62 1
@<TRIPOS>SUBSTRUCTURE
     1 YJ9         1 TEMP              0 ****  ****    0 ROOT
