@<TRIPOS>MOLECULE
YJA
   67    70     1     0     0
SMALL
bcc


@<TRIPOS>ATOM
      1 CAK          0.0000     0.0000     0.0000 ca         1 YJA      -0.140000
      2 CBC          1.3840     0.0000     0.0000 ca         1 YJA       0.125900
      3 FAD          2.0590     0.0020    -1.1710 f          1 YJA      -0.128900
      4 CAG          2.0770     0.0000     1.1990 ca         1 YJA      -0.152000
      5 CAE          1.3880    -0.0020     2.3980 ca         1 YJA      -0.057000
      6 CAH          0.0080    -0.0030     2.4040 ca         1 YJA      -0.151000
      7 CBD         -0.6920    -0.0010     1.2030 ca         1 YJA      -0.055400
      8 NAX         -2.0910    -0.0010     1.2070 ns         1 YJA      -0.048100
      9 CBB         -2.7680    -0.6470     0.2360 c          1 YJA       0.558100
     10 OAB         -2.1660    -1.3000    -0.5900 o          1 YJA      -0.603100
     11 CAT         -4.2710    -0.5580     0.1790 c3         1 YJA      -0.099700
     12 CBE         -4.7770    -1.3630    -0.9900 cc         1 YJA       0.378600
     13 CAL         -5.7280    -2.3850    -0.9280 cc         1 YJA      -0.339300
     14 NAZ         -4.4050    -1.2200    -2.2360 nd         1 YJA      -0.618800
     15 NAW         -5.1030    -2.1510    -3.0160 na         1 YJA       0.415400
     16 CBG         -5.9140    -2.8610    -2.1900 cd         1 YJA      -0.182700
     17 NAY         -6.7790    -3.8860    -2.5650 nu         1 YJA      -0.240300
     18 C6          -7.5500    -4.5210    -1.6130 ca         1 YJA       0.552200
     19 N1          -7.4810    -4.1700    -0.3350 nb         1 YJA      -0.716000
     20 C2          -8.2140    -4.7710     0.5880 ca         1 YJA       0.684900
     21 N3          -9.0510    -5.7430     0.3120 nb         1 YJA      -0.676000
     22 C4          -9.1990    -6.1770    -0.9490 ca         1 YJA       0.476600
     23 CAM        -10.0830    -7.2120    -1.2760 ca         1 YJA      -0.212300
     24 C5          -8.4390    -5.5600    -1.9740 ca         1 YJA      -0.350600
     25 CAJ         -8.5790    -5.9900    -3.3000 ca         1 YJA      -0.027000
     26 CAI         -9.4490    -6.9950    -3.5950 ca         1 YJA      -0.206000
     27 CBF        -10.1940    -7.6170    -2.5890 ca         1 YJA       0.182100
     28 OBA        -11.0500    -8.6220    -2.9110 os         1 YJA      -0.297900
     29 CAQ        -11.1210    -8.9960    -4.2870 c3         1 YJA       0.201400
     30 CAP        -12.1310   -10.1350    -4.4550 c3         1 YJA      -0.042400
     31 CAS        -12.2070   -10.5360    -5.9290 c3         1 YJA       0.146800
     32 NBK        -13.1770   -11.6290    -6.0900 n3         1 YJA      -0.518600
     33 CAO        -12.7090   -12.8490    -5.4180 c3         1 YJA       0.131800
     34 CAA        -11.3420   -13.2460    -5.9760 c3         1 YJA      -0.048100
     35 CAR        -13.4540   -11.8820    -7.5100 c3         1 YJA       0.132800
     36 CAN        -14.7300   -12.7160    -7.6380 c3         1 YJA       0.222400
     37 OAC        -15.8470   -11.9540    -7.1750 oh         1 YJA      -0.575800
     38 HAK         -0.5420     0.0020    -0.9380 ha         1 YJA       0.158000
     39 HAG          3.1600     0.0010     1.1970 ha         1 YJA       0.118000
     40 HAE          1.9330    -0.0020     3.3340 ha         1 YJA       0.105000
     41 HAH         -0.5300    -0.0040     3.3440 ha         1 YJA       0.108000
     42 HAX         -2.5890     0.4980     1.9170 hn         1 YJA       0.167500
     43 HAT1        -4.6910    -0.9500     1.0970 hc         1 YJA       0.034200
     44 HAT2        -4.5670     0.4780     0.0600 hc         1 YJA       0.034200
     45 HAL         -6.2260    -2.7380    -0.0330 ha         1 YJA       0.191000
     46 HAW         -5.0190    -2.2710    -4.0060 hn         1 YJA       0.144700
     47 HAY         -6.8420    -4.1610    -3.5250 hn         1 YJA       0.280800
     48 H2          -8.1190    -4.4460     1.6170 h5         1 YJA      -0.005900
     49 HAM        -10.6630    -7.7000    -0.5020 ha         1 YJA       0.139000
     50 HAJ         -8.0080    -5.5160    -4.0890 ha         1 YJA       0.095000
     51 HAI         -9.5520    -7.3300    -4.6200 ha         1 YJA       0.123000
     52 HAQ1       -10.1460    -9.3270    -4.6230 h1         1 YJA       0.000700
     53 HAQ2       -11.4370    -8.1450    -4.8780 h1         1 YJA       0.000700
     54 HAP1       -11.8150   -10.9870    -3.8650 hc         1 YJA       0.036200
     55 HAP2       -13.1070    -9.8050    -4.1190 hc         1 YJA       0.036200
     56 HAS1       -12.5220    -9.6840    -6.5190 h1         1 YJA       0.012200
     57 HAS2       -11.2310   -10.8670    -6.2640 h1         1 YJA       0.012200
     58 HAO1       -13.4170   -13.6510    -5.5930 h1         1 YJA       0.031200
     59 HAO2       -12.6260   -12.6670    -4.3530 h1         1 YJA       0.031200
     60 HAR1       -13.5850   -10.9390    -8.0260 h1         1 YJA       0.018200
     61 HAR2       -12.6230   -12.4220    -7.9490 h1         1 YJA       0.018200
     62 HAA1       -10.5810   -13.0740    -5.2230 hc         1 YJA       0.010700
     63 HAA2       -11.3520   -14.2950    -6.2450 hc         1 YJA       0.010700
     64 HAA3       -11.1220   -12.6500    -6.8530 hc         1 YJA       0.010700
     65 HAN1       -14.6350   -13.6160    -7.0430 h1         1 YJA      -0.012300
     66 HAN2       -14.8820   -12.9850    -8.6770 h1         1 YJA      -0.012300
     67 HAC        -16.6390   -12.2930    -7.5560 ho         1 YJA       0.382000
@<TRIPOS>BOND
     1     1     2 ar  
     2     1     7 ar  
     3     1    38 1   
     4     2     3 1   
     5     2     4 ar  
     6     4     5 ar  
     7     4    39 1   
     8     5     6 ar  
     9     5    40 1   
    10     6     7 ar  
    11     6    41 1   
    12     7     8 1   
    13     8     9 1   
    14     8    42 1   
    15     9    10 2   
    16     9    11 1   
    17    11    12 1   
    18    11    43 1   
    19    11    44 1   
    20    12    13 1   
    21    12    14 2   
    22    13    16 2   
    23    13    45 1   
    24    14    15 1   
    25    15    16 1   
    26    15    46 1   
    27    16    17 1   
    28    17    18 1   
    29    17    47 1   
    30    18    19 ar  
    31    18    24 ar  
    32    19    20 ar  
    33    20    21 ar  
    34    20    48 1   
    35    21    22 ar  
    36    22    23 ar  
    37    22    24 ar  
    38    23    27 ar  
    39    23    49 1   
    40    24    25 ar  
    41    25    26 ar  
    42    25    50 1   
    43    26    27 ar  
    44    26    51 1   
    45    27    28 1   
    46    28    29 1   
    47    29    30 1   
    48    29    52 1   
    49    29    53 1   
    50    30    31 1   
    51    30    54 1   
    52    30    55 1   
    53    31    32 1   
    54    31    56 1   
    55    31    57 1   
    56    32    33 1   
    57    32    35 1   
    58    33    34 1   
    59    33    58 1   
    60    33    59 1   
    61    34    62 1   
    62    34    63 1   
    63    34    64 1   
    64    35    36 1   
    65    35    60 1   
    66    35    61 1   
    67    36    37 1   
    68    36    65 1   
    69    36    66 1   
    70    37    67 1   
@<TRIPOS>SUBSTRUCTURE
     1 YJA         1 TEMP              0 ****  ****    0 ROOT
