@<TRIPOS>MOLECULE
YJC
   60    64     1     0     0
SMALL
bcc


@<TRIPOS>ATOM
      1 S1           0.0000     0.0000     0.0000 sy         1 YJC       0.883300
      2 N2           3.7110    -0.6000     1.3350 n          1 YJC      -0.141800
      3 Cl2          0.2500     0.9320     2.9810 cl         1 YJC       0.023600
      4 C3           4.5160     0.3960     3.4510 cx         1 YJC      -0.161700
      5 Cl3          1.7250    -2.4840     7.9230 cl         1 YJC      -0.025400
      6 C4           1.8140     0.0000     0.0000 c3         1 YJC      -0.035900
      7 C5           4.7320    -0.4070     2.1940 c          1 YJC       0.655100
      8 C6           3.7500    -1.4500     0.1360 c3         1 YJC      -0.036300
      9 C7          -0.4390     1.6430     0.4610 ca         1 YJC      -0.153500
     10 C8           2.3690     0.0000     1.4460 c3         1 YJC       0.038000
     11 C9           2.3700    -1.3430    -0.5460 c3         1 YJC       0.013600
     12 C10          4.8230    -0.9630    -0.8020 c          1 YJC       0.550100
     13 C11          5.5930     1.4160     3.8300 cx         1 YJC      -0.055400
     14 C12          4.2420     1.8930     3.2930 cx         1 YJC      -0.055400
     15 C13          6.0800    -1.1260    -2.8840 cx         1 YJC      -0.166900
     16 N14          5.0350    -1.5990    -1.9720 ns         1 YJC      -0.147900
     17 C15          7.3100    -0.5570    -2.2260 c2         1 YJC       0.423200
     18 N16          7.6320    -0.9280    -1.0440 n2         1 YJC      -0.594100
     19 C17          3.8170    -0.3260     4.5730 ca         1 YJC      -0.038300
     20 O18         -0.4990    -0.1390    -1.3230 o          1 YJC      -0.576800
     21 O19         -0.4990    -0.8060     1.0580 o          1 YJC      -0.576800
     22 C20          6.2690    -1.8880    -4.1970 cx         1 YJC      -0.066900
     23 C21          5.6310    -0.4970    -4.2050 cx         1 YJC      -0.066900
     24 O22          5.8230    -0.8800     1.9550 o          1 YJC      -0.608100
     25 C23         -0.3260     2.0460     1.7800 ca         1 YJC       0.039400
     26 O24          5.4980     0.0010    -0.5060 o          1 YJC      -0.606100
     27 C25          3.4530    -1.6510     4.4200 ca         1 YJC      -0.098000
     28 C26          3.5430     0.3350     5.7550 ca         1 YJC      -0.098000
     29 C27          2.5320    -1.6520     6.6310 ca         1 YJC      -0.037600
     30 C29         -0.8930     2.5310    -0.4960 ca         1 YJC       0.016000
     31 C30          2.8110    -2.3140     5.4490 ca         1 YJC      -0.088500
     32 C31          2.9010    -0.3270     6.7850 ca         1 YJC      -0.088500
     33 C33         -0.6710     3.3360     2.1400 ca         1 YJC      -0.126000
     34 C34         -1.2380     3.8200    -0.1350 ca         1 YJC      -0.130000
     35 C35         -1.1300     4.2210     1.1840 ca         1 YJC      -0.036000
     36 H4           2.2090     0.8370    -0.5640 h1         1 YJC       0.090700
     37 H6           3.9400    -2.4780     0.4200 h1         1 YJC       0.047700
     38 H8           2.4410     1.0140     1.8210 h1         1 YJC       0.052700
     39 H8A          1.7400    -0.6030     2.0900 h1         1 YJC       0.052700
     40 H9           1.7330    -2.1680    -0.2490 hc         1 YJC       0.036700
     41 H9A          2.4780    -1.3020    -1.6230 hc         1 YJC       0.036700
     42 H11          5.7500     1.5570     4.8930 hc         1 YJC       0.056700
     43 H11A         6.4240     1.4960     3.1410 hc         1 YJC       0.056700
     44 H12          4.2480     2.2650     2.2760 hc         1 YJC       0.056700
     45 H12A         3.5740     2.3260     4.0280 hc         1 YJC       0.056700
     46 HN14         4.5050    -2.4170    -2.2000 hn         1 YJC       0.173500
     47 H15          7.9210     0.1660    -2.7520 h4         1 YJC      -0.008200
     48 HN16         7.0680    -1.5960    -0.5570 hn         1 YJC       0.328400
     49 H20          7.2860    -1.9390    -4.5660 hc         1 YJC       0.051200
     50 H20A         5.5890    -2.7160    -4.3590 hc         1 YJC       0.051200
     51 H21          4.5610    -0.4750    -4.3730 hc         1 YJC       0.051200
     52 H21A         6.2590     0.3020    -4.5790 hc         1 YJC       0.051200
     53 H25          3.6720    -2.1700     3.4950 ha         1 YJC       0.114500
     54 H26          3.8330     1.3720     5.8750 ha         1 YJC       0.114500
     55 H29         -0.9780     2.2180    -1.5300 ha         1 YJC       0.132000
     56 H30          2.5260    -3.3530     5.3300 ha         1 YJC       0.115500
     57 H31          2.6860     0.1910     7.7120 ha         1 YJC       0.115500
     58 H33         -0.5870     3.6510     3.1730 ha         1 YJC       0.120000
     59 H34         -1.5960     4.5150    -0.8850 ha         1 YJC       0.113000
     60 H35         -1.4000     5.2310     1.4670 ha         1 YJC       0.107000
@<TRIPOS>BOND
     1     1     6 1   
     2     1     9 1   
     3     1    20 2   
     4     1    21 2   
     5     2     7 1   
     6     2     8 1   
     7     2    10 1   
     8     3    25 1   
     9     4     7 1   
    10     4    13 1   
    11     4    14 1   
    12     4    19 1   
    13     5    29 1   
    14     6    10 1   
    15     6    11 1   
    16     6    36 1   
    17     7    24 2   
    18     8    11 1   
    19     8    12 1   
    20     8    37 1   
    21     9    25 ar  
    22     9    30 ar  
    23    10    38 1   
    24    10    39 1   
    25    11    40 1   
    26    11    41 1   
    27    12    16 1   
    28    12    26 2   
    29    13    14 1   
    30    13    42 1   
    31    13    43 1   
    32    14    44 1   
    33    14    45 1   
    34    15    16 1   
    35    15    17 1   
    36    15    22 1   
    37    15    23 1   
    38    16    46 1   
    39    17    18 2   
    40    17    47 1   
    41    18    48 1   
    42    19    27 ar  
    43    19    28 ar  
    44    22    23 1   
    45    22    49 1   
    46    22    50 1   
    47    23    51 1   
    48    23    52 1   
    49    25    33 ar  
    50    27    31 ar  
    51    27    53 1   
    52    28    32 ar  
    53    28    54 1   
    54    29    31 ar  
    55    29    32 ar  
    56    30    34 ar  
    57    30    55 1   
    58    31    56 1   
    59    32    57 1   
    60    33    35 ar  
    61    33    58 1   
    62    34    35 ar  
    63    34    59 1   
    64    35    60 1   
@<TRIPOS>SUBSTRUCTURE
     1 YJC         1 TEMP              0 ****  ****    0 ROOT
