@<TRIPOS>MOLECULE
molecule
   36    38     1     0     0
SMALL
bcc


@<TRIPOS>ATOM
      1 CA           0.0000     0.0000     0.0000 ca         1 YJD       0.112100
      2 CB           1.3870     0.0000     0.0000 ca         1 YJD      -0.147500
      3 CC           2.0780     0.0000     1.1950 ca         1 YJD      -0.104000
      4 CD           1.3840     0.0020     2.3980 ca         1 YJD      -0.008200
      5 CE          -0.0040     0.0040     2.3970 ca         1 YJD      -0.104000
      6 CF          -0.6930     0.0030     1.2010 ca         1 YJD      -0.147500
      7 N1           3.3850     0.6640     5.2460 nc         1 YJD      -0.679100
      8 C6           2.8940     0.9990     4.0810 cd         1 YJD       0.650100
      9 O2           3.1490     2.1610     3.4370 os         1 YJD      -0.391400
     10 O4          -0.6800     0.0050    -1.1770 oh         1 YJD      -0.520100
     11 C2           2.9260    -0.5650     5.5990 ca         1 YJD       0.123400
     12 C3           3.1300    -1.3830     6.7130 ca         1 YJD      -0.086000
     13 C7           2.5090    -2.6100     6.7840 ca         1 YJD      -0.137000
     14 C8           1.6830    -3.0410     5.7570 ca         1 YJD      -0.127000
     15 C20          4.0230     3.0860     4.0860 c3         1 YJD       0.154100
     16 C9           1.4720    -2.2460     4.6490 ca         1 YJD      -0.116000
     17 C10          2.0890    -1.0070     4.5620 ca         1 YJD      -0.089200
     18 C11          5.4670     2.8050     3.6650 c3         1 YJD      -0.105600
     19 N13          2.0860     0.0030     3.6130 na         1 YJD      -0.087400
     20 C13          3.6440     4.5130     3.6870 c3         1 YJD      -0.105600
     21 HB           1.9290    -0.0020    -0.9380 ha         1 YJD       0.147000
     22 HF          -1.7770     0.0030     1.2010 ha         1 YJD       0.147000
     23 H4          -0.8390    -0.8830    -1.4520 ho         1 YJD       0.422000
     24 HC           3.1620    -0.0010     1.1940 ha         1 YJD       0.149000
     25 HE          -0.5460     0.0050     3.3350 ha         1 YJD       0.149000
     26 H20          3.9320     2.9760     5.1600 h1         1 YJD       0.077700
     27 H3           3.7740    -1.0520     7.5190 ha         1 YJD       0.142000
     28 H7           2.6680    -3.2430     7.6490 ha         1 YJD       0.133000
     29 H8           1.2010    -4.0090     5.8250 ha         1 YJD       0.132000
     30 H9           0.8250    -2.5890     3.8500 ha         1 YJD       0.130000
     31 H111         5.5360     2.8140     2.5840 hc         1 YJD       0.048367
     32 H112         6.1180     3.5680     4.0750 hc         1 YJD       0.048367
     33 H113         5.7690     1.8340     4.0380 hc         1 YJD       0.048367
     34 H131         3.7780     4.6370     2.6190 hc         1 YJD       0.048367
     35 H132         4.2780     5.2160     4.2140 hc         1 YJD       0.048367
     36 H133         2.6080     4.6980     3.9450 hc         1 YJD       0.048367
@<TRIPOS>BOND
     1     1     2 ar
     2     1     6 ar
     3     1    10 1
     4     2     3 ar
     5     3     4 ar
     6     4     5 ar
     7     4    19 1
     8     5     6 ar
     9     7     8 2
    10     7    11 1
    11     8     9 1
    12     8    19 1
    13     9    15 1
    14    11    12 ar
    15    11    17 ar
    16    12    13 ar
    17    13    14 ar
    18    14    16 ar
    19    16    17 ar
    20    17    19 1
    21    15    18 1
    22    15    20 1
    23     2    21 1
    24     6    22 1
    25    10    23 1
    26     3    24 1
    27     5    25 1
    28    15    26 1
    29    12    27 1
    30    13    28 1
    31    14    29 1
    32    16    30 1
    33    18    31 1
    34    18    32 1
    35    18    33 1
    36    20    34 1
    37    20    35 1
    38    20    36 1
@<TRIPOS>SUBSTRUCTURE
     1 YJD         1 TEMP              0 ****  ****    0 ROOT
