@<TRIPOS>MOLECULE
YJD
   36    38     1     0     0
SMALL
bcc


@<TRIPOS>ATOM
      1 CA          0.0260    0.0840   -0.0000 ca        1 YJD      0.119100
      2 CB          1.3480    0.5570    0.0520 ca        1 YJD     -0.172500
      3 CC          2.0450    0.5110    1.2510 ca        1 YJD     -0.100500
      4 CD          1.4330   -0.0020    2.4180 ca        1 YJD     -0.010200
      5 CE          0.1000   -0.4580    2.3520 ca        1 YJD     -0.100500
      6 CF         -0.5960   -0.4220    1.1490 ca        1 YJD     -0.172500
      7 N1          3.5490    0.6170    5.3690 nc        1 YJD     -0.625100
      8 C6          3.0440    0.9250    4.1500 cd        1 YJD      0.632100
      9 O2          3.2910    2.0260    3.3690 os        1 YJD     -0.405400
     10 O4         -0.6030    0.1500   -1.2220 oh        1 YJD     -0.494100
     11 C2          2.9680   -0.6290    5.6900 ca        1 YJD      0.092400
     12 C3          3.1250   -1.4390    6.8200 ca        1 YJD     -0.085000
     13 C7          2.4380   -2.6460    6.8670 ca        1 YJD     -0.143000
     14 C8          1.6080   -3.0630    5.8170 ca        1 YJD     -0.126000
     15 C20         4.0430    3.0980    4.0020 c3        1 YJD      0.158100
     16 C9          1.4240   -2.2880    4.6770 ca        1 YJD     -0.124000
     17 C10         2.0940   -1.0640    4.6140 ca        1 YJD     -0.070200
     18 C11         5.5250    2.8090    3.9050 c3        1 YJD     -0.114100
     19 N13         2.1460   -0.0540    3.6300 na        1 YJD     -0.101400
     20 C13         3.6570    4.3370    3.2120 c3        1 YJD     -0.114100
     21 HB          1.8170    0.9560   -0.8580 ha        1 YJD      0.147000
     22 HF         -1.6330   -0.7830    1.1050 ha        1 YJD      0.147000
     23 H4         -1.5010   -0.1960   -1.1140 ho        1 YJD      0.420000
     24 HC          3.0780    0.8950    1.2930 ha        1 YJD      0.153000
     25 HE         -0.4030   -0.8430    3.2530 ha        1 YJD      0.153000
     26 H20         3.7230    3.2050    5.0740 h1        1 YJD      0.075700
     27 H3          3.7800   -1.1230    7.6440 ha        1 YJD      0.147000
     28 H7          2.5490   -3.2940    7.7490 ha        1 YJD      0.132000
     29 H8          1.0900   -4.0310    5.8950 ha        1 YJD      0.132000
     30 H9          0.7830   -2.6320    3.8540 ha        1 YJD      0.139000
     31 H111        6.0980    3.6820    4.2980 hc        1 YJD      0.052200
     32 H112        5.7910    1.9050    4.5040 hc        1 YJD      0.052200
     33 H113        5.8190    2.6310    2.8430 hc        1 YJD      0.052200
     34 H131        4.1890    5.2190    3.6400 hc        1 YJD      0.052200
     35 H132        2.5550    4.5060    3.2700 hc        1 YJD      0.052200
     36 H133        3.9420    4.2220    2.1390 hc        1 YJD      0.052200
@<TRIPOS>BOND
     1    1    2 ar  
     2    1    6 ar  
     3    1   10 1   
     4    2    3 ar  
     5    2   21 1   
     6    3    4 ar  
     7    3   24 1   
     8    4    5 ar  
     9    4   19 1   
    10    5    6 ar  
    11    5   25 1   
    12    6   22 1   
    13    7    8 2   
    14    7   11 1   
    15    8    9 1   
    16    8   19 1   
    17    9   15 1   
    18   10   23 1   
    19   11   12 ar  
    20   11   17 ar  
    21   12   13 ar  
    22   12   27 1   
    23   13   14 ar  
    24   13   28 1   
    25   14   16 ar  
    26   14   29 1   
    27   15   18 1   
    28   15   20 1   
    29   15   26 1   
    30   16   17 ar  
    31   16   30 1   
    32   17   19 1   
    33   18   31 1   
    34   18   32 1   
    35   18   33 1   
    36   20   34 1   
    37   20   35 1   
    38   20   36 1   
@<TRIPOS>SUBSTRUCTURE
     1 YJD         1 TEMP              0 ****  ****    0 ROOT
