@<TRIPOS>MOLECULE
YJM
   31    31     1     0     0
SMALL
bcc


@<TRIPOS>ATOM
      1 C01          0.0000     0.0000     0.0000 c3         1 YJM       0.362900
      2 C02          1.5310     0.0000     0.0000 c3         1 YJM       0.179500
      3 C03          2.0330     0.0000     1.4470 c3         1 YJM       0.152100
      4 C04          1.4520     1.2140     2.1780 c3         1 YJM       0.136100
      5 C05         -0.0760     1.1660     2.0940 c3         1 YJM       0.157100
      6 C06         -0.6630     2.4080     2.7710 c3         1 YJM       0.263400
      7 N07          2.0210    -1.1970    -0.6890 n7         1 YJM      -0.608100
      8 O08          3.4600     0.0750     1.4570 oh         1 YJM      -0.574800
      9 O09          1.8560     1.1850     3.5490 oh         1 YJM      -0.594800
     10 O10         -0.4760     1.1380     0.7220 os         1 YJM      -0.398600
     11 O11         -2.0880     2.3070     2.7950 os         1 YJM      -0.492500
     12 S12          2.4150    -1.1240    -2.2950 s6         1 YJM       1.111700
     13 O13          2.8820    -2.4170    -2.6520 o          1 YJM      -0.665533
     14 O14          1.3270    -0.4830    -2.9470 o          1 YJM      -0.665533
     15 O15          3.6070    -0.1860    -2.4240 o          1 YJM      -0.665533
     16 S16         -2.7810     3.4940     3.4490 s6         1 YJM       1.335300
     17 O17         -1.9750     3.8680     4.5580 o          1 YJM      -0.694200
     18 O18         -2.7190     4.6520     2.4630 o          1 YJM      -0.694200
     19 O19         -4.1530     3.1410     3.5680 o          1 YJM      -0.694200
     20 O20         -0.4770    -1.1940     0.6250 oh         1 YJM      -0.620800
     21 H01         -0.3590     0.0470    -1.0210 h2         1 YJM       0.053700
     22 H02          1.8910     0.8880    -0.5060 h1         1 YJM       0.069700
     23 H03          1.7100    -0.9080     1.9420 h1         1 YJM       0.013700
     24 H04          1.8100     2.1230     1.7090 h1         1 YJM       0.020700
     25 H05         -0.4360     0.2740     2.5920 h1         1 YJM       0.027700
     26 H06         -0.3730     3.2920     2.2170 h1         1 YJM       0.016700
     27 H06A        -0.2880     2.4780     3.7850 h1         1 YJM       0.016700
     28 HN07         2.1240    -2.0560    -0.1860 hn         1 YJM       0.308800
     29 HO08         3.8080    -0.6210     1.9900 ho         1 YJM       0.372000
     30 HO09         2.5300     1.8290     3.6920 ho         1 YJM       0.384000
     31 HO20        -1.2520    -1.4940     0.1800 ho         1 YJM       0.387000
@<TRIPOS>BOND
     1     1     2 1   
     2     1    10 1   
     3     1    20 1   
     4     1    21 1   
     5     2     3 1   
     6     2     7 1   
     7     2    22 1   
     8     3     4 1   
     9     3     8 1   
    10     3    23 1   
    11     4     5 1   
    12     4     9 1   
    13     4    24 1   
    14     5     6 1   
    15     5    10 1   
    16     5    25 1   
    17     6    11 1   
    18     6    26 1   
    19     6    27 1   
    20     7    12 1   
    21     7    28 1   
    22     8    29 1   
    23     9    30 1   
    24    11    16 1   
    25    12    13 1   
    26    12    14 1   
    27    12    15 1   
    28    16    17 1   
    29    16    18 1   
    30    16    19 1   
    31    20    31 1   
@<TRIPOS>SUBSTRUCTURE
     1 YJM         1 TEMP              0 ****  ****    0 ROOT
