@<TRIPOS>MOLECULE
YJW
   33    35     1     0     0
SMALL
bcc


@<TRIPOS>ATOM
      1 N2          0.0620    0.8620    0.0030 nc        1 YJW     -0.339300
      2 C3          1.3610    0.4970    0.0380 cd        1 YJW      0.399800
      3 C4          1.7620    0.3110    1.4440 cd        1 YJW     -0.257600
      4 C5          0.6090    0.6000    2.1610 cc        1 YJW      0.271000
      5 C6          2.2060    0.3400   -1.1360 ca        1 YJW     -0.198500
      6 C7          3.0460   -0.1000    1.9540 ca        1 YJW     -0.008000
      7 C8          0.2360    0.6300    3.5740 c3        1 YJW     -0.140400
      8 C12         3.5280    0.4280    3.1630 ca        1 YJW     -0.117000
      9 C13         4.7610    0.0210    3.6670 ca        1 YJW     -0.131500
     10 C14         5.5260   -0.9180    2.9760 ca        1 YJW     -0.127000
     11 C15         5.0530   -1.4490    1.7760 ca        1 YJW     -0.131500
     12 C16         3.8220   -1.0440    1.2660 ca        1 YJW     -0.117000
     13 C21         1.9500   -0.6730   -2.0860 ca        1 YJW      0.186100
     14 C22         2.7450   -0.8090   -3.2310 ca        1 YJW     -0.255000
     15 C23         3.8050    0.0870   -3.4220 ca        1 YJW      0.174100
     16 C24         4.0750    1.1000   -2.4890 ca        1 YJW     -0.253000
     17 C25         3.2720    1.2170   -1.3590 ca        1 YJW     -0.028000
     18 O29         4.5530   -0.0890   -4.5610 oh        1 YJW     -0.494100
     19 O11        -0.4050    0.9280    1.2320 os        1 YJW     -0.119100
     20 O30         0.9070   -1.5270   -1.8290 oh        1 YJW     -0.479100
     21 H81C        0.8710   -0.0890    4.1490 hc        1 YJW      0.066033
     22 H82C        0.3920    1.6590    3.9880 hc        1 YJW      0.066033
     23 H83C       -0.8420    0.3570    3.7030 hc        1 YJW      0.066033
     24 H25         3.4760    2.0140   -0.6260 ha        1 YJW      0.148000
     25 H12         2.9250    1.1690    3.7100 ha        1 YJW      0.138000
     26 H16         3.4490   -1.4620    0.3170 ha        1 YJW      0.138000
     27 H13         5.1300    0.4420    4.6140 ha        1 YJW      0.132500
     28 H14         6.4980   -1.2400    3.3760 ha        1 YJW      0.132000
     29 H15         5.6530   -2.1920    1.2290 ha        1 YJW      0.132500
     30 H22         2.5480   -1.5940   -3.9740 ha        1 YJW      0.156000
     31 H30         0.8050   -2.1170   -2.5910 ho        1 YJW      0.425000
     32 H24         4.9090    1.7960   -2.6520 ha        1 YJW      0.140000
     33 H29         5.2380    0.5960   -4.5780 ho        1 YJW      0.424000
@<TRIPOS>BOND
     1    1    2 2
     2    1   19 1
     3    2    3 1
     4    2    5 1
     5    3    4 2
     6    3    6 1
     7    4    7 1
     8    4   19 1
     9    5   13 ar
    10    5   17 ar
    11    6    8 ar
    12    6   12 ar
    13    7   21 1
    14    7   22 1
    15    7   23 1
    16    8    9 ar
    17    8   25 1
    18    9   10 ar
    19    9   27 1
    20   10   11 ar
    21   10   28 1
    22   11   12 ar
    23   11   29 1
    24   12   26 1
    25   13   14 ar
    26   13   20 1
    27   14   15 ar
    28   14   30 1
    29   15   16 ar
    30   15   18 1
    31   16   17 ar
    32   16   32 1
    33   17   24 1
    34   18   33 1
    35   20   31 1
@<TRIPOS>SUBSTRUCTURE
     1 YJW         1 TEMP              0 ****  ****    0 ROOT
