@<TRIPOS>MOLECULE
molecule
   37    41     1     0     0
SMALL
bcc


@<TRIPOS>ATOM
      1 C15          0.0000     0.0000     0.0000 ca         1 YJX      -0.107000
      2 C19          1.3860     0.0000     0.0000 ca         1 YJX      -0.128000
      3 C8          -0.7020    -0.0000     1.1900 ca         1 YJX      -0.083000
      4 C14          2.0870     0.0000     1.1890 ca         1 YJX      -0.058000
      5 C20         -5.1260     1.2970     1.0610 ca         1 YJX      -0.198300
      6 C22         -6.2470     0.6620     0.6060 ca         1 YJX       0.394200
      7 C21         -5.8740    -1.1910     1.9400 ca         1 YJX       0.435200
      8 C3          -0.0130    -0.0020     2.3990 ca         1 YJX      -0.064800
      9 C7           1.4000    -0.0000     2.3990 ca         1 YJX      -0.160600
     10 C17         -4.3240     0.6530     2.0140 ca         1 YJX       0.116400
     11 C18         -4.7200    -0.6270     2.4580 ca         1 YJX      -0.234500
     12 C5          -2.8500    -0.0110     3.4690 cc         1 YJX       0.507100
     13 C1          -0.4170    -0.0070     3.8080 cd         1 YJX       0.135400
     14 C9           1.8240     0.0010     3.8090 c          1 YJX       0.723100
     15 C2          -1.6700    -0.0190     4.3340 ce         1 YJX      -0.220800
     16 C6          -1.8100    -0.0400     5.8400 c3         1 YJX      -0.021200
     17 C13         -0.6300     0.6910     6.4820 c3         1 YJX      -0.100400
     18 C10          0.6890     0.0330     6.0620 c3         1 YJX       0.122000
     19 N23         -6.5880    -0.5370     1.0450 nb         1 YJX      -0.677000
     20 N11         -3.1910     0.9700     2.6590 nd         1 YJX      -0.597100
     21 N12         -3.7710    -1.0240     3.3780 na         1 YJX      -0.246300
     22 N4           0.7360     0.0070     4.5930 n          1 YJX      -0.388000
     23 O16          2.9750    -0.0030     4.2000 o          1 YJX      -0.599500
     24 H15         -0.5370    -0.0000    -0.9410 ha         1 YJX       0.139000
     25 H19          1.9230     0.0000    -0.9410 ha         1 YJX       0.139000
     26 H8          -1.7850    -0.0000     1.1820 ha         1 YJX       0.154000
     27 H14          3.1710    -0.0000     1.1800 ha         1 YJX       0.148000
     28 H22         -6.8710     1.1540    -0.1310 h4         1 YJX       0.027100
     29 H21         -6.1910    -2.1720     2.2710 h4         1 YJX       0.019100
     30 H12         -3.6770    -1.9420     3.7670 hn         1 YJX       0.309700
     31 H61C        -2.7330     0.4520     6.1210 hc         1 YJX       0.056200
     32 H62C        -1.8250    -1.0670     6.1830 hc         1 YJX       0.056200
     33 H131        -0.6320     1.7260     6.1600 hc         1 YJX       0.063200
     34 H132        -0.7250     0.6460     7.5600 hc         1 YJX       0.063200
     35 H101         1.5230     0.6090     6.4440 h1         1 YJX       0.063700
     36 H102         0.7300    -0.9800     6.4460 h1         1 YJX       0.063700
     37 H20         -4.8600     2.2800     0.6910 ha         1 YJX       0.150000
@<TRIPOS>BOND
     1     1     2 ar
     2     1     3 ar
     3     2     4 ar
     4     3     8 ar
     5     4     9 ar
     6     5     6 ar
     7     5    10 ar
     8     6    19 ar
     9     7    11 ar
    10     7    19 ar
    11     8     9 ar
    12     8    13 1
    13     9    14 1
    14    10    11 ar
    15    10    20 1
    16    11    21 1
    17    12    15 1
    18    12    20 2
    19    12    21 1
    20    13    15 2
    21    13    22 1
    22    14    22 1
    23    14    23 2
    24    15    16 1
    25    16    17 1
    26    17    18 1
    27    18    22 1
    28     1    24 1
    29     2    25 1
    30     3    26 1
    31     4    27 1
    32     5    37 1
    33     6    28 1
    34     7    29 1
    35    21    30 1
    36    16    31 1
    37    16    32 1
    38    17    33 1
    39    17    34 1
    40    18    35 1
    41    18    36 1
@<TRIPOS>SUBSTRUCTURE
     1 YJX         1 TEMP              0 ****  ****    0 ROOT
