@<TRIPOS>MOLECULE
YK9
   34    38     1     0     0
SMALL
bcc


@<TRIPOS>ATOM
      1 C15         0.0590   -0.5380    0.0690 ca        1 YK9     -0.107000
      2 C19         1.4250   -0.7720    0.1430 ca        1 YK9     -0.135000
      3 C8         -0.6890   -0.2260    1.2190 ca        1 YK9     -0.104000
      4 C14         2.1020   -0.6950    1.3750 ca        1 YK9     -0.060000
      5 C20        -5.7330   -1.2380    1.6970 ca        1 YK9     -0.249300
      6 C22        -6.7230   -0.4970    1.0450 ca        1 YK9      0.405200
      7 C21        -5.8340    1.5770    1.5990 ca        1 YK9      0.466200
      8 C3         -0.0380   -0.1620    2.4360 cp        1 YK9     -0.029000
      9 C7          1.3740   -0.3890    2.5050 ca        1 YK9     -0.172600
     10 C17        -4.7330   -0.4940    2.3390 ca        1 YK9     -0.050200
     11 C18        -4.7700    0.9620    2.2980 ca        1 YK9     -0.063900
     12 C5         -2.9960    0.4040    3.4560 cc        1 YK9      0.457400
     13 C1         -0.5250    0.1440    3.7880 cp        1 YK9      0.020000
     14 C9          1.8300   -0.2150    3.9140 c         1 YK9      0.598300
     15 C2         -1.7880    0.4220    4.2880 ca        1 YK9     -0.109900
     16 C6         -1.9260    0.7350    5.6580 ca        1 YK9     -0.073000
     17 C13        -0.8280    0.7390    6.5050 ca        1 YK9     -0.146000
     18 C10         0.4550    0.4290    6.0180 ca        1 YK9     -0.044000
     19 N23        -6.7820    0.8600    0.9910 nb        1 YK9     -0.682000
     20 N11        -3.6030   -0.8250    3.0790 na        1 YK9     -0.274300
     21 C30         0.5970    0.1360    4.6790 ca        1 YK9     -0.183600
     22 N12        -3.6740    1.4830    3.0070 nd        1 YK9     -0.527100
     23 O16         2.9700   -0.3350    4.3540 o         1 YK9     -0.498100
     24 H15        -0.4560   -0.5900   -0.9030 ha        1 YK9      0.140000
     25 H19         1.9930   -1.0160   -0.7670 ha        1 YK9      0.140000
     26 H8         -1.7670   -0.0250    1.1350 ha        1 YK9      0.150000
     27 H14         3.1870   -0.8690    1.4320 ha        1 YK9      0.153000
     28 H22        -7.5450   -1.0150    0.5180 h4        1 YK9      0.024100
     29 H21        -5.9140    2.6770    1.5350 h4        1 YK9      0.039100
     30 H11        -3.2770   -1.7280    3.2960 hn        1 YK9      0.313700
     31 H6         -2.9260    0.9850    6.0480 ha        1 YK9      0.151000
     32 H13        -0.9560    0.9880    7.5690 ha        1 YK9      0.145000
     33 H10         1.3260    0.4230    6.6910 ha        1 YK9      0.156000
     34 H20        -5.7450   -2.3330    1.7040 ha        1 YK9      0.147000
@<TRIPOS>BOND
     1    1    2 ar  
     2    1    3 ar  
     3    1   24 1   
     4    2    4 ar  
     5    2   25 1   
     6    3    8 ar  
     7    3   26 1   
     8    4    9 ar  
     9    4   27 1   
    10    5    6 ar  
    11    5   10 ar  
    12    5   34 1   
    13    6   19 ar  
    14    6   28 1   
    15    7   11 ar  
    16    7   19 ar  
    17    7   29 1   
    18    8    9 ar  
    19    8   13 1   
    20    9   14 1   
    21   10   11 ar  
    22   10   20 1   
    23   11   22 1   
    24   12   15 1   
    25   12   20 1   
    26   12   22 2   
    27   13   15 ar  
    28   13   21 ar  
    29   14   21 1   
    30   14   23 2   
    31   15   16 ar  
    32   16   17 ar  
    33   16   31 1   
    34   17   18 ar  
    35   17   32 1   
    36   18   21 ar  
    37   18   33 1   
    38   20   30 1   
@<TRIPOS>SUBSTRUCTURE
     1 YK9         1 TEMP              0 ****  ****    0 ROOT
