@<TRIPOS>MOLECULE
molecule
   34    38     1     0     0
SMALL
bcc


@<TRIPOS>ATOM
      1 C15          0.0000     0.0000     0.0000 ca         1 YK9      -0.113000
      2 C19          1.3820     0.0000     0.0000 ca         1 YK9      -0.132000
      3 C8          -0.7010    -0.0000     1.1960 ca         1 YK9      -0.116000
      4 C14          2.0810     0.0000     1.1950 ca         1 YK9      -0.068000
      5 C20         -6.3910    -0.4240     2.5130 ca         1 YK9      -0.252300
      6 C22         -6.8720    -0.1790     1.2430 ca         1 YK9       0.427200
      7 C21         -4.7860     0.4490     0.4640 ca         1 YK9       0.479200
      8 C3          -0.0150     0.0010     2.4040 cp         1 YK9      -0.032000
      9 C7           1.3900     0.0010     2.4020 ca         1 YK9      -0.176600
     10 C17         -5.0400    -0.2230     2.7690 ca         1 YK9      -0.064200
     11 C18         -4.2130     0.2270     1.7180 ca         1 YK9      -0.040900
     12 C5          -2.9610     0.0010     3.4850 cc         1 YK9       0.491400
     13 C1          -0.4880     0.0010     3.8110 cp         1 YK9       0.046000
     14 C9           1.8440     0.0020     3.8120 c          1 YK9       0.603300
     15 C2          -1.7740     0.0010     4.3650 ca         1 YK9      -0.110900
     16 C6          -1.9300     0.0000     5.7550 ca         1 YK9      -0.092000
     17 C13         -0.8250     0.0010     6.5790 ca         1 YK9      -0.144000
     18 C10          0.4520     0.0030     6.0390 ca         1 YK9      -0.043000
     19 N23         -6.0730     0.2420     0.2760 nb         1 YK9      -0.695000
     20 N11         -4.2280    -0.3560     3.8700 na         1 YK9      -0.254300
     21 C30          0.6290     0.0020     4.6600 ca         1 YK9      -0.181600
     22 N12         -2.9610     0.3420     2.2190 nd         1 YK9      -0.589100
     23 O16          2.9950     0.0020     4.2000 o          1 YK9      -0.496100
     24 H15         -0.5380    -0.0000    -0.9400 ha         1 YK9       0.134000
     25 H19          1.9210     0.0000    -0.9400 ha         1 YK9       0.134000
     26 H8          -1.7840    -0.0000     1.1880 ha         1 YK9       0.211000
     27 H14          3.1650     0.0000     1.1900 ha         1 YK9       0.143000
     28 H22         -7.9230    -0.3340     1.0340 h4         1 YK9       0.029100
     29 H21         -4.1690     0.7940    -0.3570 h4         1 YK9       0.035100
     30 H11         -4.4810    -0.7820     4.7390 hn         1 YK9       0.309700
     31 H6          -2.9230    -0.0010     6.1870 ha         1 YK9       0.129000
     32 H13         -0.9550     0.0010     7.6540 ha         1 YK9       0.142000
     33 H10          1.3150     0.0030     6.6940 ha         1 YK9       0.150000
     34 H20         -7.0550    -0.7680     3.2960 ha         1 YK9       0.137000
@<TRIPOS>BOND
     1     1     2 ar
     2     1     3 ar
     3     2     4 ar
     4     3     8 ar
     5     4     9 ar
     6     5     6 ar
     7     5    10 ar
     8     6    19 ar
     9     7    11 ar
    10     7    19 ar
    11     8     9 ar
    12     8    13 1
    13     9    14 1
    14    10    11 ar
    15    10    20 1
    16    11    22 1
    17    12    15 1
    18    12    20 1
    19    12    22 2
    20    13    15 ar
    21    13    21 ar
    22    14    21 1
    23    14    23 2
    24    15    16 ar
    25    16    17 ar
    26    17    18 ar
    27    18    21 ar
    28     1    24 1
    29     2    25 1
    30     3    26 1
    31     4    27 1
    32     5    34 1
    33     6    28 1
    34     7    29 1
    35    20    30 1
    36    16    31 1
    37    17    32 1
    38    18    33 1
@<TRIPOS>SUBSTRUCTURE
     1 YK9         1 TEMP              0 ****  ****    0 ROOT
