@<TRIPOS>MOLECULE
molecule
   50    54     1     0     0
SMALL
bcc


@<TRIPOS>ATOM
      1 C1           0.0000     0.0000     0.0000 ca         1 YKB      -0.126000
      2 C2           1.3830     0.0000     0.0000 ca         1 YKB      -0.118000
      3 C3           2.0770     0.0000     1.1970 ca         1 YKB      -0.111000
      4 C4          -0.6960     0.0010     1.1910 ca         1 YKB      -0.089000
      5 C5          -0.0020     0.0020     2.4040 cp         1 YKB      -0.050000
      6 C6           1.3910     0.0010     2.3930 ca         1 YKB      -0.115300
      7 C7           1.8560     0.0020     3.8290 c3         1 YKB       0.221300
      8 C8          -0.4850     0.0020     3.8050 cp         1 YKB       0.032000
      9 C9           0.6040     0.0040     4.6720 ca         1 YKB      -0.135300
     10 C10          0.4070     0.0040     6.0370 ca         1 YKB      -0.085000
     11 C11         -0.8760     0.0050     6.5600 ca         1 YKB      -0.129000
     12 C12         -1.9700     0.0040     5.7190 ca         1 YKB      -0.098000
     13 C13         -1.7880     0.0020     4.3370 ca         1 YKB      -0.092900
     14 C14         -2.9580     0.0020     3.4350 cc         1 YKB       0.484400
     15 N15         -2.9920     0.5500     2.2420 nd         1 YKB      -0.604100
     16 N16         -4.1680    -0.5740     3.7140 na         1 YKB      -0.242300
     17 C17         -4.9830    -0.3540     2.6220 ca         1 YKB      -0.223500
     18 C18         -4.2060     0.3690     1.6930 ca         1 YKB       0.113400
     19 C19         -4.7980     0.7260     0.4740 ca         1 YKB      -0.201300
     20 C20         -6.0940     0.3670     0.2410 ca         1 YKB       0.403200
     21 N21         -6.7960    -0.3070     1.1360 nb         1 YKB      -0.667000
     22 C22         -6.2890    -0.6780     2.2970 ca         1 YKB       0.439200
     23 N23          2.6480     1.2030     4.1020 ns         1 YKB      -0.547900
     24 C24          3.9720     1.2100     3.8470 c          1 YKB       0.659100
     25 C25          4.7880     2.4450     4.1270 c3         1 YKB      -0.154400
     26 O26          4.5060     0.2200     3.3910 o          1 YKB      -0.617100
     27 C27          6.2480     2.1880     3.7520 c3         1 YKB      -0.142400
     28 C28          7.0630     3.4240     4.0320 c          1 YKB       0.475100
     29 O29          6.5290     4.4120     4.4880 o          1 YKB      -0.396100
     30 N30          8.3870     3.4300     3.7770 nz         1 YKB      -0.685400
     31 H1          -0.5390    -0.0000    -0.9400 ha         1 YKB       0.139000
     32 H2           1.9240    -0.0010    -0.9390 ha         1 YKB       0.133000
     33 H4          -1.7790     0.0010     1.1860 ha         1 YKB       0.198000
     34 H3           3.1600    -0.0000     1.1950 ha         1 YKB       0.132000
     35 H7           2.4370    -0.8900     4.0320 h1         1 YKB       0.102700
     36 H23          2.2040     2.0250     4.4620 hn         1 YKB       0.328500
     37 H10          1.2600     0.0050     6.7040 ha         1 YKB       0.133000
     38 H11         -1.0210     0.0060     7.6330 ha         1 YKB       0.145000
     39 H12         -2.9710     0.0040     6.1330 ha         1 YKB       0.137000
     40 H16         -4.4580    -0.9330     4.6020 hn         1 YKB       0.310700
     41 H22         -6.9000    -1.2290     3.0010 h4         1 YKB       0.025100
     42 H19         -4.2360     1.2780    -0.2700 ha         1 YKB       0.149000
     43 H20         -6.5610     0.6460    -0.6960 h4         1 YKB       0.033100
     44 H251         4.7240     2.6890     5.1810 hc         1 YKB       0.086700
     45 H252         4.4040     3.2720     3.5420 hc         1 YKB       0.086700
     46 H271         6.6310     1.3610     4.3380 hc         1 YKB       0.111700
     47 H272         6.3120     1.9440     2.6980 hc         1 YKB       0.111700
     48 H301         8.8350     2.7180     4.3190 hn         1 YKB       0.479800
     49 H302         8.7690     4.3230     4.0190 hn         1 YKB       0.479800
     50 H303         8.5400     3.2550     2.8040 hn         1 YKB       0.479800
@<TRIPOS>BOND
     1     1     2 ar
     2     1     4 ar
     3     2     3 ar
     4     3     6 ar
     5     4     5 ar
     6     5     6 ar
     7     5     8 1
     8     6     7 1
     9     7     9 1
    10     7    23 1
    11     8     9 ar
    12     8    13 ar
    13     9    10 ar
    14    10    11 ar
    15    11    12 ar
    16    12    13 ar
    17    13    14 1
    18    14    15 2
    19    14    16 1
    20    15    18 1
    21    16    17 1
    22    17    18 ar
    23    17    22 ar
    24    18    19 ar
    25    19    20 ar
    26    20    21 ar
    27    21    22 ar
    28    23    24 1
    29    24    25 1
    30    24    26 2
    31    25    27 1
    32    27    28 1
    33    28    29 2
    34    28    30 1
    35     1    31 1
    36     2    32 1
    37     4    33 1
    38     3    34 1
    39     7    35 1
    40    23    36 1
    41    10    37 1
    42    11    38 1
    43    12    39 1
    44    16    40 1
    45    22    41 1
    46    19    42 1
    47    20    43 1
    48    25    44 1
    49    25    45 1
    50    27    46 1
    51    27    47 1
    52    30    48 1
    53    30    49 1
    54    50    30 1
@<TRIPOS>SUBSTRUCTURE
     1 YKB         1 TEMP              0 ****  ****    0 ROOT
