@<TRIPOS>MOLECULE
molecule
   48    53     1     0     0
SMALL
bcc


@<TRIPOS>ATOM
      1 C1           0.0000     0.0000     0.0000 ca         1 YKC      -0.136000
      2 C2           1.3840     0.0000     0.0000 ca         1 YKC      -0.116000
      3 C3           2.0780     0.0000     1.1960 ca         1 YKC      -0.103000
      4 C4          -0.6950     0.0010     1.1910 ca         1 YKC      -0.095000
      5 C5          -0.0010     0.0010     2.4040 cp         1 YKC      -0.061000
      6 C6           1.3930     0.0000     2.3920 ca         1 YKC      -0.098300
      7 C7           1.8580     0.0010     3.8280 c3         1 YKC       0.219300
      8 C8          -0.4820     0.0010     3.8050 cp         1 YKC       0.035000
      9 C9           0.6050     0.0020     4.6710 ca         1 YKC      -0.125300
     10 C10          0.4100     0.0030     6.0360 ca         1 YKC      -0.082000
     11 C11         -0.8730     0.0040     6.5600 ca         1 YKC      -0.136000
     12 C12         -1.9670     0.0030     5.7190 ca         1 YKC      -0.105000
     13 C13         -1.7870     0.0010     4.3370 ca         1 YKC      -0.105900
     14 C14         -2.9560     0.0010     3.4340 cc         1 YKC       0.495400
     15 N15         -2.9910     0.5490     2.2420 nd         1 YKC      -0.598100
     16 N16         -4.1660    -0.5750     3.7140 na         1 YKC      -0.246300
     17 C17         -4.9820    -0.3540     2.6230 ca         1 YKC      -0.228500
     18 C18         -4.2040     0.3680     1.6950 ca         1 YKC       0.116400
     19 C19         -4.7960     0.7260     0.4760 ca         1 YKC      -0.199300
     20 C20         -6.0940     0.3650     0.2420 ca         1 YKC       0.396200
     21 N21         -6.7950    -0.3090     1.1390 nb         1 YKC      -0.675000
     22 C22         -6.2890    -0.6790     2.2980 ca         1 YKC       0.436200
     23 N23          2.6500     1.2030     4.1010 ns         1 YKC      -0.565900
     24 C24          3.9730     1.2090     3.8450 c          1 YKC       0.672700
     25 C25          4.7760     2.4240     4.1210 ca         1 YKC      -0.109600
     26 O26          4.5090     0.2190     3.3880 o          1 YKC      -0.603100
     27 C27          6.1490     2.4520     3.8630 ca         1 YKC      -0.215800
     28 C28          6.8580     3.6060     4.1350 ca         1 YKC       0.414200
     29 C40          4.1780     3.5760     4.6410 ca         1 YKC      -0.215800
     30 N30          6.2570     4.6690     4.6300 nb         1 YKC      -0.676000
     31 C60          4.9630     4.6860     4.8830 ca         1 YKC       0.414200
     32 H1          -0.5390    -0.0000    -0.9390 ha         1 YKC       0.131000
     33 H2           1.9250    -0.0010    -0.9390 ha         1 YKC       0.132000
     34 H4          -1.7780     0.0010     1.1870 ha         1 YKC       0.189000
     35 H3           3.1620    -0.0000     1.1930 ha         1 YKC       0.148000
     36 H7           2.4400    -0.8900     4.0290 h1         1 YKC       0.101700
     37 H23          2.2170     2.0050     4.5140 hn         1 YKC       0.323500
     38 H10          1.2640     0.0040     6.7020 ha         1 YKC       0.139000
     39 H11         -1.0170     0.0050     7.6330 ha         1 YKC       0.140000
     40 H12         -2.9680     0.0030     6.1330 ha         1 YKC       0.129000
     41 H16         -4.4570    -0.9320     4.6030 hn         1 YKC       0.308700
     42 H22         -6.8990    -1.2310     3.0030 h4         1 YKC       0.020100
     43 H19         -4.2350     1.2780    -0.2680 ha         1 YKC       0.150000
     44 H20         -6.5610     0.6440    -0.6950 h4         1 YKC       0.028100
     45 H27          6.6500     1.5820     3.4560 ha         1 YKC       0.149500
     46 H40          3.1150     3.5980     4.8510 ha         1 YKC       0.149500
     47 H28          7.9230     3.6360     3.9400 h4         1 YKC       0.028100
     48 H60          4.5100     5.5830     5.2880 h4         1 YKC       0.028100
@<TRIPOS>BOND
     1     1     2 ar
     2     1     4 ar
     3     2     3 ar
     4     3     6 ar
     5     4     5 ar
     6     5     6 ar
     7     5     8 1
     8     6     7 1
     9     7     9 1
    10     7    23 1
    11     8     9 ar
    12     8    13 ar
    13     9    10 ar
    14    10    11 ar
    15    11    12 ar
    16    12    13 ar
    17    13    14 1
    18    14    15 2
    19    14    16 1
    20    15    18 1
    21    16    17 1
    22    17    18 ar
    23    17    22 ar
    24    18    19 ar
    25    19    20 ar
    26    20    21 ar
    27    21    22 ar
    28    23    24 1
    29    24    25 1
    30    24    26 2
    31    25    27 ar
    32    25    29 ar
    33    27    28 ar
    34    28    30 ar
    35    29    31 ar
    36    30    31 ar
    37     1    32 1
    38     2    33 1
    39     4    34 1
    40     3    35 1
    41     7    36 1
    42    23    37 1
    43    10    38 1
    44    11    39 1
    45    12    40 1
    46    16    41 1
    47    22    42 1
    48    19    43 1
    49    20    44 1
    50    27    45 1
    51    29    46 1
    52    28    47 1
    53    31    48 1
@<TRIPOS>SUBSTRUCTURE
     1 YKC         1 TEMP              0 ****  ****    0 ROOT
