@<TRIPOS>MOLECULE
molecule
   54    60     1     0     0
SMALL
bcc


@<TRIPOS>ATOM
      1 C1           0.0000     0.0000     0.0000 ca         1 YKE      -0.131000
      2 C2           1.3980     0.0000     0.0000 ca         1 YKE      -0.116000
      3 C3           2.1110     0.0000     1.1550 ca         1 YKE      -0.113000
      4 C4          -0.7160     0.0010     1.1520 ca         1 YKE      -0.099000
      5 C5          -0.0410     0.0020     2.3950 ca         1 YKE      -0.016000
      6 C6           1.4340     0.0020     2.3930 ca         1 YKE      -0.054000
      7 C7           1.8590     0.0030     3.7190 cc         1 YKE       0.028600
      8 C8          -0.4720     0.0030     3.7090 cc         1 YKE      -0.131200
      9 C9           0.6590     0.0040     4.5630 cc         1 YKE      -0.051000
     10 C10          0.4900     0.0050     5.9440 cf         1 YKE       0.011000
     11 C11         -0.7680     0.0060     6.5570 cf         1 YKE      -0.160000
     12 C12         -1.9110     0.0050     5.8540 c2         1 YKE      -0.122200
     13 C13         -1.8450     0.0030     4.3430 c3         1 YKE       0.015400
     14 C14         -2.5830     1.2200     3.8460 cc         1 YKE       0.449800
     15 N15         -3.4020     1.2340     2.8320 nd         1 YKE      -0.612100
     16 N16         -2.4970     2.4600     4.3950 na         1 YKE      -0.239300
     17 C17         -3.3170     3.2920     3.6610 ca         1 YKE      -0.227500
     18 C18         -3.8900     2.4830     2.6600 ca         1 YKE       0.122400
     19 C19         -4.7810     3.0790     1.7580 ca         1 YKE      -0.197300
     20 C20         -5.0520     4.4110     1.8850 ca         1 YKE       0.393200
     21 N21         -4.4940     5.1420     2.8350 nb         1 YKE      -0.679000
     22 C22         -3.6540     4.6340     3.7140 ca         1 YKE       0.436200
     23 N23          3.1780     0.0020     4.1620 ns         1 YKE      -0.467100
     24 C24          3.6230     0.9960     4.9560 c          1 YKE       0.681700
     25 C25          5.0470     1.0550     5.3380 ca         1 YKE      -0.134600
     26 O26          2.8510     1.8450     5.3590 o          1 YKE      -0.607100
     27 C27          5.9640     0.1680     4.7890 ca         1 YKE      -0.092000
     28 C28          7.7670     1.1430     6.0450 ca         1 YKE      -0.131300
     29 C29          7.3040     0.2280     5.1520 ca         1 YKE      -0.139000
     30 C30          5.5230     2.0500     6.2940 ca         1 YKE      -0.119300
     31 C31          6.8960     2.0760     6.6360 ca         1 YKE       0.409600
     32 N32          7.3420     2.9780     7.5160 nb         1 YKE      -0.684000
     33 C33          6.5330     3.8490     8.0690 ca         1 YKE       0.433200
     34 C34          5.1720     3.8790     7.7690 ca         1 YKE      -0.257300
     35 C35          4.6510     2.9800     6.8830 ca         1 YKE      -0.077000
     36 H1          -0.5260    -0.0000    -0.9470 ha         1 YKE       0.129000
     37 H2           1.9260    -0.0010    -0.9460 ha         1 YKE       0.127000
     38 H4          -1.7990     0.0010     1.1200 ha         1 YKE       0.153000
     39 H3           3.1940     0.0000     1.1260 ha         1 YKE       0.127000
     40 H23          3.7860    -0.7550     3.9210 hn         1 YKE       0.327500
     41 H10          1.3720     0.0050     6.5730 ha         1 YKE       0.143000
     42 H11         -0.8220     0.0060     7.6390 ha         1 YKE       0.139000
     43 H12         -2.8550    -0.1720     6.3560 ha         1 YKE       0.151000
     44 H13         -2.3690    -0.8770     3.9920 hc         1 YKE       0.109700
     45 H16         -2.0420     2.6920     5.2550 hn         1 YKE       0.310700
     46 H22         -3.2200     5.2700     4.4760 h4         1 YKE       0.019100
     47 H19         -5.2460     2.4930     0.9750 ha         1 YKE       0.148000
     48 H20         -5.7360     4.8810     1.1880 h4         1 YKE       0.025100
     49 H27          5.6330    -0.5750     4.0740 ha         1 YKE       0.127000
     50 H29          8.0000    -0.4740     4.7100 ha         1 YKE       0.137000
     51 H28          8.8190     1.1560     6.3020 ha         1 YKE       0.151000
     52 H35          3.5960     2.9870     6.6370 ha         1 YKE       0.192000
     53 H33          6.9330     4.5680     8.7730 h4         1 YKE       0.023100
     54 H34          4.5290     4.6110     8.2420 ha         1 YKE       0.141000
@<TRIPOS>BOND
     1     1     2 ar
     2     1     4 ar
     3     2     3 ar
     4     3     6 ar
     5     4     5 ar
     6     5     6 ar
     7     5     8 2
     8     6     7 2
     9     7     9 1
    10     7    23 1
    11     8     9 1
    12     8    13 1
    13     9    10 2
    14    10    11 1
    15    11    12 2
    16    12    13 1
    17    13    14 1
    18    14    15 2
    19    14    16 1
    20    15    18 1
    21    16    17 1
    22    17    18 ar
    23    17    22 ar
    24    18    19 ar
    25    19    20 ar
    26    20    21 ar
    27    21    22 ar
    28    23    24 1
    29    24    25 1
    30    24    26 2
    31    25    27 ar
    32    25    30 ar
    33    27    29 ar
    34    28    29 ar
    35    28    31 ar
    36    30    31 ar
    37    30    35 ar
    38    31    32 ar
    39    32    33 ar
    40    33    34 ar
    41    34    35 ar
    42     1    36 1
    43     2    37 1
    44     4    38 1
    45     3    39 1
    46    23    40 1
    47    10    41 1
    48    11    42 1
    49    12    43 1
    50    13    44 1
    51    16    45 1
    52    22    46 1
    53    19    47 1
    54    20    48 1
    55    27    49 1
    56    29    50 1
    57    28    51 1
    58    35    52 1
    59    33    53 1
    60    34    54 1
@<TRIPOS>SUBSTRUCTURE
     1 YKE         1 TEMP              0 ****  ****    0 ROOT
