@<TRIPOS>MOLECULE
molecule
   52    58     1     0     0
SMALL
bcc


@<TRIPOS>ATOM
      1 C1           0.0000     0.0000     0.0000 ca         1 YKI       0.396200
      2 N1           1.3220     0.0000     0.0000 nb         1 YKI      -0.675000
      3 C2           2.0280     0.0000     1.1150 ca         1 YKI       0.434200
      4 N2           1.8070     0.0070     3.6590 na         1 YKI      -0.248300
      5 C3          -0.7140     0.0050     1.1650 ca         1 YKI      -0.199300
      6 N3          -0.3860     0.0150     3.6770 nc         1 YKI      -0.599100
      7 C4           0.6830     0.0220     4.4390 cd         1 YKI       0.497400
      8 N4          -2.4540     0.4700     9.2580 ns         1 YKI      -0.568900
      9 C5          -0.0210     0.0110     2.3820 ca         1 YKI       0.116400
     10 N5          -5.7510    -1.6350    12.4480 nb         1 YKI      -0.699000
     11 C6           1.3890    -0.0000     2.3440 ca         1 YKI      -0.226500
     12 N6          -6.6310     0.4190    13.5160 na         1 YKI      -0.282100
     13 C7           0.6730     0.0290     5.9160 ca         1 YKI      -0.106900
     14 C8           0.6600     0.0380     8.6920 ca         1 YKI      -0.081000
     15 C9           1.6980    -0.5680     8.0060 ca         1 YKI      -0.136000
     16 C10          1.7100    -0.5760     6.6260 ca         1 YKI      -0.106000
     17 C12         -4.1620     0.0670    10.9650 ca         1 YKI      -0.065600
     18 O13         -3.3780     2.1760    10.3400 o          1 YKI      -0.604100
     19 C14         -4.1020    -1.3180    10.7910 ca         1 YKI      -0.262300
     20 C15         -4.9170    -2.1310    11.5570 ca         1 YKI       0.440200
     21 C16         -1.6090     1.3710     8.4710 c3         1 YKI       0.219300
     22 C17         -0.3710     0.6460     8.0050 ca         1 YKI      -0.123300
     23 C18         -0.3800     0.6510     6.6140 cp         1 YKI       0.034000
     24 C19         -2.3340     1.8030     7.2200 ca         1 YKI      -0.097300
     25 C20         -1.5870     1.3620     6.1300 cp         1 YKI      -0.061000
     26 C21         -2.0400     1.6290     4.8360 ca         1 YKI      -0.096000
     27 C22         -3.2170     2.3240     4.6480 ca         1 YKI      -0.137000
     28 C23         -3.9520     2.7580     5.7380 ca         1 YKI      -0.117000
     29 C24         -3.5080     2.4960     7.0220 ca         1 YKI      -0.103000
     30 C25         -5.0620     0.5680    11.9260 ca         1 YKI      -0.169100
     31 C26         -5.8570    -0.3340    12.6630 ca         1 YKI       0.461800
     32 C27         -6.3560     1.7480    13.3440 cd         1 YKI      -0.098100
     33 C28         -5.4140     1.9030    12.3960 cc         1 YKI      -0.172200
     34 H1          -0.5290    -0.0000    -0.9450 h4         1 YKI       0.028100
     35 H2           3.1100     0.0000     1.0690 h4         1 YKI       0.020100
     36 H3          -1.7970     0.0050     1.1470 ha         1 YKI       0.150000
     37 HN4         -2.3810    -0.5200     9.1360 hn         1 YKI       0.323500
     38 H8           0.6590     0.0390     9.7760 ha         1 YKI       0.140000
     39 H9           2.5050    -1.0390     8.5540 ha         1 YKI       0.139000
     40 H10          2.5250    -1.0520     6.0940 ha         1 YKI       0.130000
     41 H14         -3.4240    -1.7500    10.0650 ha         1 YKI       0.134000
     42 H15         -4.8690    -3.2050    11.4210 h4         1 YKI       0.026100
     43 H16         -1.3320     2.2390     9.0570 h1         1 YKI       0.102700
     44 H21         -1.4680     1.2920     3.9800 ha         1 YKI       0.188000
     45 H22         -3.5680     2.5300     3.6440 ha         1 YKI       0.131000
     46 H23         -4.8760     3.3020     5.5850 ha         1 YKI       0.131000
     47 H24         -4.0850     2.8370     7.8740 ha         1 YKI       0.148000
     48 H27         -6.8260     2.5560    13.8920 h4         1 YKI       0.172000
     49 H28         -4.9980     2.8400    12.0480 ha         1 YKI       0.182000
     50 HN2          2.7550     0.0080     3.9810 hn         1 YKI       0.309700
     51 C11         -3.3090     0.9750    10.1710 c          1 YKI       0.676700
     52 HN6         -7.2970     0.0500    14.1650 hn         1 YKI       0.305700
@<TRIPOS>BOND
     1     5     1 ar
     2     1     2 ar
     3     1    34 1
     4     2     3 ar
     5    11     3 ar
     6     3    35 1
     7     7     4 1
     8    11     4 1
     9     5     9 ar
    10     5    36 1
    11     6     9 1
    12     6     7 2
    13    13     7 1
    14    51     8 1
    15    21     8 1
    16     8    37 1
    17     9    11 ar
    18    31    10 ar
    19    10    20 ar
    20    32    12 1
    21    12    31 1
    22    23    13 ar
    23    13    16 ar
    24    22    14 ar
    25    14    15 ar
    26    14    38 1
    27    15    16 ar
    28    15    39 1
    29    16    40 1
    30    18    51 2
    31    51    17 1
    32    30    17 ar
    33    17    19 ar
    34    19    20 ar
    35    19    41 1
    36    20    42 1
    37    24    21 1
    38    21    22 1
    39    21    43 1
    40    22    23 ar
    41    25    23 1
    42    29    24 ar
    43    24    25 ar
    44    26    25 ar
    45    27    26 ar
    46    26    44 1
    47    28    27 ar
    48    27    45 1
    49    28    29 ar
    50    28    46 1
    51    29    47 1
    52    33    30 1
    53    30    31 ar
    54    33    32 2
    55    32    48 1
    56    33    49 1
    57     4    50 1
    58    12    52 1
@<TRIPOS>SUBSTRUCTURE
     1 YKI         1 TEMP              0 ****  ****    0 ROOT
