@<TRIPOS>MOLECULE
YKN
   29    31     1     0     0
SMALL
bcc


@<TRIPOS>ATOM
      1 F10         0.6790    0.5030    1.4930 f         1 YKN     -0.184800
      2 C9          1.6960    0.2150    0.6200 c3        1 YKN      0.533400
      3 F11         2.7540   -0.0130    1.4620 f         1 YKN     -0.184800
      4 S12         1.3390   -1.1340   -0.6080 ss        1 YKN     -0.202400
      5 C13         1.0590   -2.5710    0.3050 ca        1 YKN      0.721300
      6 N15         0.8200   -3.6950   -0.4360 nb        1 YKN     -0.681000
      7 C16         0.5870   -4.8390    0.2590 ca        1 YKN      0.461600
      8 C17         0.3160   -6.1010   -0.4920 c3        1 YKN     -0.156400
      9 C18         0.5960   -4.8580    1.6730 ca        1 YKN     -0.373600
     10 C19         0.8560   -3.6450    2.3340 ca        1 YKN      0.449200
     11 N20         1.0880   -2.4960    1.6730 nb        1 YKN     -0.708000
     12 C8          1.9690    1.3550   -0.3450 cc        1 YKN      0.438600
     13 N7          1.1340    2.0250   -1.1290 nd        1 YKN     -0.488100
     14 C6          1.9420    2.9720   -1.8020 ca        1 YKN      0.042400
     15 C5          1.6510    3.9560   -2.7520 ca        1 YKN     -0.054000
     16 C4          2.7090    4.7330   -3.2170 ca        1 YKN     -0.148000
     17 C3          4.0250    4.5550   -2.7630 ca        1 YKN     -0.099000
     18 C2          4.3530    3.5850   -1.8170 ca        1 YKN     -0.113000
     19 C1          3.3000    2.8090   -1.3530 ca        1 YKN      0.046100
     20 O14         3.3230    1.7760   -0.4160 os        1 YKN     -0.274700
     21 H171       -0.6000   -5.9870   -1.1250 hc        1 YKN      0.061700
     22 H172        0.1600   -6.9470    0.2200 hc        1 YKN      0.061700
     23 H173        1.1760   -6.3470   -1.1640 hc        1 YKN      0.061700
     24 H18         0.4080   -5.7820    2.2310 ha        1 YKN      0.156000
     25 H19         0.8790   -3.5810    3.4370 h4        1 YKN      0.034100
     26 H5          0.6250    4.1050   -3.1150 ha        1 YKN      0.158000
     27 H4          2.5070    5.5150   -3.9660 ha        1 YKN      0.142000
     28 H3          4.8220    5.1990   -3.1660 ha        1 YKN      0.142000
     29 H2          5.3800    3.4390   -1.4570 ha        1 YKN      0.159000
@<TRIPOS>BOND
     1    1    2 1   
     2    2    3 1   
     3    2    4 1   
     4    2   12 1   
     5    4    5 1   
     6    5    6 ar  
     7    5   11 ar  
     8    6    7 ar  
     9    7    8 1   
    10    7    9 ar  
    11    8   21 1   
    12    8   22 1   
    13    8   23 1   
    14    9   10 ar  
    15    9   24 1   
    16   10   11 ar  
    17   10   25 1   
    18   12   13 2   
    19   12   20 1   
    20   13   14 1   
    21   14   15 ar  
    22   14   19 ar  
    23   15   16 ar  
    24   15   26 1   
    25   16   17 ar  
    26   16   27 1   
    27   17   18 ar  
    28   17   28 1   
    29   18   19 ar  
    30   18   29 1   
    31   19   20 1   
@<TRIPOS>SUBSTRUCTURE
     1 YKN         1 TEMP              0 ****  ****    0 ROOT
