@<TRIPOS>MOLECULE
YKR
   39    40     1     0     0
SMALL
bcc


@<TRIPOS>ATOM
      1 C1           0.0000     0.0000     0.0000 c3         1 YKR       0.408900
      2 O1          -0.4770    -1.1930     0.6240 oh         1 YKR      -0.626800
      3 C2           1.5310     0.0000     0.0000 c3         1 YKR      -0.151500
      4 N2           2.0220    -1.1990    -0.6900 nz         1 YKR       0.092400
      5 C3           2.0340     0.0000     1.4470 c3         1 YKR       0.156100
      6 O3           3.4600     0.0740     1.4570 oh         1 YKR      -0.575800
      7 C4           1.4520     1.2140     2.1780 c3         1 YKR       0.144100
      8 O4           1.8550     1.1840     3.5490 os         1 YKR      -0.383600
      9 C5          -0.0770     1.1670     2.0940 c3         1 YKR       0.161100
     10 O5          -0.4750     1.1380     0.7220 os         1 YKR      -0.364600
     11 C6          -0.6620     2.4080     2.7700 c3         1 YKR       0.230400
     12 O6          -2.0880     2.3110     2.7890 oh         1 YKR      -0.585800
     13 CAL          4.3210     0.9820     7.2340 ca         1 YKR      -0.096500
     14 CAM          4.0820     0.9820     5.8730 ca         1 YKR      -0.077000
     15 CAN          3.7610     1.9600     8.0350 ca         1 YKR      -0.076000
     16 CAO          3.2830     1.9600     5.3120 ca         1 YKR      -0.129300
     17 CAP          2.9610     2.9370     7.4740 ca         1 YKR      -0.096500
     18 CAU          3.0220     1.9610     3.8280 c3         1 YKR       0.265700
     19 CBC          2.7230     2.9380     6.1120 ca         1 YKR      -0.077000
     20 H1          -0.3590     0.0470    -1.0210 h2         1 YKR       0.032700
     21 H2           1.8900     0.8880    -0.5060 hx         1 YKR       0.115700
     22 HN2          3.0010    -1.1010    -0.8740 hn         1 YKR       0.225133
     23 HN2A         1.8700    -2.0020    -0.1130 hn         1 YKR       0.225133
     24 H3           1.7100    -0.9080     1.9410 h1         1 YKR       0.047700
     25 HO3          3.8150    -0.7420     1.7700 ho         1 YKR       0.410000
     26 H4           1.8110     2.1230     1.7090 h1         1 YKR       0.040700
     27 H5          -0.4360     0.2740     2.5920 h1         1 YKR       0.053700
     28 H6          -0.3680     3.2920     2.2180 h1         1 YKR       0.008700
     29 H6A         -0.2910     2.4750     3.7850 h1         1 YKR       0.008700
     30 HO6         -2.4440     3.0130     3.3090 ho         1 YKR       0.407000
     31 HAN          3.9480     1.9590     9.1020 ha         1 YKR       0.111000
     32 HAP          2.5220     3.7040     8.1010 ha         1 YKR       0.110000
     33 HAU          2.8690     2.9790     3.4890 h1         1 YKR       0.003700
     34 HAUA         3.8730     1.5330     3.3110 h1         1 YKR       0.003700
     35 HBC          2.0960     3.7050     5.6730 ha         1 YKR       0.099500
     36 H7          -1.2940    -1.4490     0.2290 ho         1 YKR       0.443000
     37 HAL          4.9480     0.2150     7.6740 ha         1 YKR       0.110000
     38 H23          1.5320    -1.3110    -1.5550 hn         1 YKR       0.225133
     39 HAM          4.5210     0.2160     5.2460 ha         1 YKR       0.099500
@<TRIPOS>BOND
     1     1     2 1   
     2     1     3 1   
     3     1    10 1   
     4     1    20 1   
     5     2    36 1   
     6     3     4 1   
     7     3     5 1   
     8     3    21 1   
     9     4    22 1   
    10     4    23 1   
    11     4    38 1   
    12     5     6 1   
    13     5     7 1   
    14     5    24 1   
    15     6    25 1   
    16     7     8 1   
    17     7     9 1   
    18     7    26 1   
    19     8    18 1   
    20     9    10 1   
    21     9    11 1   
    22     9    27 1   
    23    11    12 1   
    24    11    28 1   
    25    11    29 1   
    26    12    30 1   
    27    13    14 ar  
    28    13    15 ar  
    29    13    37 1   
    30    14    16 ar  
    31    14    39 1   
    32    15    17 ar  
    33    15    31 1   
    34    16    18 1   
    35    16    19 ar  
    36    17    19 ar  
    37    17    32 1   
    38    18    33 1   
    39    18    34 1   
    40    19    35 1   
@<TRIPOS>SUBSTRUCTURE
     1 YKR         1 TEMP              0 ****  ****    0 ROOT
