@<TRIPOS>MOLECULE
molecule
   39    40     1     0     0
SMALL
bcc


@<TRIPOS>ATOM
      1 C1           0.0000     0.0000     0.0000 c3         1 YKR       0.329900
      2 O1          -0.4770    -1.1930     0.6240 oh         1 YKR      -0.638800
      3 C2           1.5310     0.0000     0.0000 c3         1 YKR       0.053500
      4 N2           2.0220    -1.1990    -0.6900 nz         1 YKR      -0.803600
      5 C3           2.0340     0.0000     1.4470 c3         1 YKR       0.103100
      6 O3           3.4600     0.0740     1.4570 oh         1 YKR      -0.597800
      7 C4           1.4520     1.2140     2.1780 c3         1 YKR       0.121100
      8 O4           1.8550     1.1840     3.5490 os         1 YKR      -0.398600
      9 C5          -0.0770     1.1670     2.0940 c3         1 YKR       0.136100
     10 O5          -0.4750     1.1380     0.7220 os         1 YKR      -0.373600
     11 C6          -0.6620     2.4080     2.7700 c3         1 YKR       0.157400
     12 O6          -2.0880     2.3110     2.7890 oh         1 YKR      -0.600800
     13 CAL          4.3210     0.9820     7.2340 ca         1 YKR      -0.124000
     14 CAM          4.0820     0.9820     5.8730 ca         1 YKR      -0.105000
     15 CAN          3.7610     1.9600     8.0350 ca         1 YKR      -0.105000
     16 CAO          3.2830     1.9600     5.3120 ca         1 YKR      -0.108300
     17 CAP          2.9610     2.9370     7.4740 ca         1 YKR      -0.124000
     18 CAU          3.0220     1.9610     3.8280 c3         1 YKR       0.179700
     19 CBC          2.7230     2.9380     6.1120 ca         1 YKR      -0.105000
     20 H1          -0.3590     0.0470    -1.0210 h2         1 YKR       0.086700
     21 H2           1.8900     0.8880    -0.5060 hx         1 YKR       0.139700
     22 HN2          3.0010    -1.1010    -0.8740 hn         1 YKR       0.458800
     23 HN2A         1.8700    -2.0020    -0.1130 hn         1 YKR       0.458800
     24 H3           1.7100    -0.9080     1.9410 h1         1 YKR       0.083700
     25 HO3          3.8150    -0.7420     1.7700 ho         1 YKR       0.423000
     26 H4           1.8110     2.1230     1.7090 h1         1 YKR       0.070700
     27 H5          -0.4360     0.2740     2.5920 h1         1 YKR       0.091700
     28 H6          -0.3680     3.2920     2.2180 h1         1 YKR       0.049200
     29 H6A         -0.2910     2.4750     3.7850 h1         1 YKR       0.049200
     30 HO6         -2.4440     3.0130     3.3090 ho         1 YKR       0.422000
     31 HAN          3.9480     1.9590     9.1020 ha         1 YKR       0.142000
     32 HAP          2.5220     3.7040     8.1010 ha         1 YKR       0.140000
     33 HAU          2.8690     2.9790     3.4890 h1         1 YKR       0.041700
     34 HAUA         3.8730     1.5330     3.3110 h1         1 YKR       0.041700
     35 HBC          2.0960     3.7050     5.6730 ha         1 YKR       0.126500
     36 H7          -1.2940    -1.4490     0.2290 ho         1 YKR       0.453000
     37 HAL          4.9480     0.2150     7.6740 ha         1 YKR       0.140000
     38 H23          1.5320    -1.3110    -1.5550 hn         1 YKR       0.458800
     39 HAM          4.5210     0.2160     5.2460 ha         1 YKR       0.126500
@<TRIPOS>BOND
     1     1     2 1
     2     1     3 1
     3     1    10 1
     4     3     4 1
     5     3     5 1
     6     5     6 1
     7     5     7 1
     8     7     8 1
     9     7     9 1
    10     8    18 1
    11     9    10 1
    12     9    11 1
    13    11    12 1
    14    13    14 ar
    15    13    15 ar
    16    14    16 ar
    17    15    17 ar
    18    16    18 1
    19    16    19 ar
    20    17    19 ar
    21     1    20 1
    22     3    21 1
    23     4    22 1
    24     4    23 1
    25     5    24 1
    26     6    25 1
    27     7    26 1
    28     9    27 1
    29    11    28 1
    30    11    29 1
    31    12    30 1
    32    13    37 1
    33    14    39 1
    34    15    31 1
    35    17    32 1
    36    18    33 1
    37    18    34 1
    38    19    35 1
    39     2    36 1
    40    38     4 1
@<TRIPOS>SUBSTRUCTURE
     1 YKR         1 TEMP              0 ****  ****    0 ROOT
