@<TRIPOS>MOLECULE
molecule
   41    44     1     0     0
SMALL
bcc


@<TRIPOS>ATOM
      1 OAU          0.0000     0.0000     0.0000 o          1 YL2      -0.846333
      2 PAS          1.6110     0.0000     0.0000 p5         1 YL2       0.994700
      3 OAV          2.1470     0.0000     1.5180 o          1 YL2      -0.846333
      4 OAW          2.1030    -1.2090    -0.6970 o          1 YL2      -0.846333
      5 CAR          2.2180     1.4880    -0.8590 c3         1 YL2       0.063100
      6 PAT          4.0400     1.4880    -0.8590 p5         1 YL2       0.994700
      7 OAX          4.5780     0.1740    -1.6180 o          1 YL2      -0.846333
      8 OAZ          4.5780     2.8030    -1.6180 o          1 YL2      -0.846333
      9 OAY          4.5350     1.4890     0.5370 o          1 YL2      -0.846333
     10 NAJ          1.7300     1.4870    -2.2410 nu         1 YL2      -0.627900
     11 C4           1.7920     2.6450    -2.9960 ca         1 YL2       0.626200
     12 N3           2.2950     3.7570    -2.4830 nb         1 YL2      -0.643000
     13 C2           2.3650     4.8680    -3.1940 ca         1 YL2       0.625900
     14 N1           1.9440     4.9320    -4.4370 nb         1 YL2      -0.836000
     15 C6           1.4180     3.8600    -5.0440 ca         1 YL2       0.557600
     16 SAE          0.7830     3.6470    -6.6690 ss         1 YL2      -0.387900
     17 C5           1.3220     2.6570    -4.3360 ca         1 YL2      -0.374400
     18 CAC          0.7390     1.6000    -5.1340 cc         1 YL2      -0.075200
     19 CAD          0.4000     1.9620    -6.3720 cd         1 YL2      -0.116600
     20 CAK         -0.2130     1.0580    -7.3680 ca         1 YL2       0.034200
     21 CAP         -0.4860    -0.2700    -7.0350 ca         1 YL2      -0.182000
     22 CAO         -1.0590    -1.1080    -7.9680 ca         1 YL2      -0.106500
     23 CAL         -0.5270     1.5290    -8.6430 ca         1 YL2      -0.182000
     24 CAM         -1.1000     0.6800    -9.5680 ca         1 YL2      -0.106500
     25 CAN         -1.3620    -0.6360    -9.2330 ca         1 YL2      -0.225300
     26 CAQ         -1.9870    -1.5590   -10.2480 cx         1 YL2       0.001600
     27 CBA         -2.4850    -0.9370   -11.5540 cx         1 YL2      -0.179400
     28 CBB         -1.2200    -1.7990   -11.5510 cx         1 YL2      -0.179400
     29 H3           1.8570     2.3730    -0.3480 h1         1 YL2       0.080700
     30 H6           1.3170     0.6610    -2.6250 hn         1 YL2       0.466800
     31 H7           2.7840     5.7560    -2.7370 h5         1 YL2       0.016100
     32 H8           0.5840     0.5970    -4.7550 ha         1 YL2       0.143000
     33 H9          -0.2490    -0.6410    -6.0450 ha         1 YL2       0.126500
     34 H10         -1.2690    -2.1400    -7.7120 ha         1 YL2       0.083500
     35 H11         -0.3230     2.5600    -8.9070 ha         1 YL2       0.126500
     36 H12         -1.3420     1.0440   -10.5590 ha         1 YL2       0.083500
     37 H13         -2.5660    -2.4060    -9.9000 hc         1 YL2       0.051700
     38 H14         -3.3640    -1.3980   -11.9870 hc         1 YL2       0.056200
     39 H15         -2.3230     0.1300   -11.6560 hc         1 YL2       0.056200
     40 H16         -0.2860    -1.2590   -11.6490 hc         1 YL2       0.056200
     41 H17         -1.3270    -2.7870   -11.9810 hc         1 YL2       0.056200
@<TRIPOS>BOND
     1     4     2 1
     2     1     2 1
     3    13    14 ar
     4    13    12 ar
     5     2     3 1
     6     2     5 1
     7    14    15 ar
     8    12    11 ar
     9    15    16 1
    10    15    17 ar
    11    16    19 1
    12     5    10 1
    13     5     6 1
    14    11    17 ar
    15    11    10 1
    16    17    18 1
    17     9     6 1
    18    19    18 2
    19    19    20 1
    20    21    22 ar
    21    21    20 ar
    22     6     7 1
    23     6     8 1
    24    22    25 ar
    25    20    23 ar
    26    25    26 1
    27    25    24 ar
    28    23    24 ar
    29    26    28 1
    30    26    27 1
    31    28    27 1
    32     5    29 1
    33    10    30 1
    34    13    31 1
    35    18    32 1
    36    21    33 1
    37    22    34 1
    38    23    35 1
    39    24    36 1
    40    26    37 1
    41    27    38 1
    42    27    39 1
    43    28    40 1
    44    28    41 1
@<TRIPOS>SUBSTRUCTURE
     1 YL2         1 TEMP              0 ****  ****    0 ROOT
