@<TRIPOS>MOLECULE
YL3
   34    36     1     0     0
SMALL
bcc


@<TRIPOS>ATOM
      1 OAT          0.0000     0.0000     0.0000 o          1 YL3      -0.709167
      2 PAS          1.6100     0.0000     0.0000 p5         1 YL3       0.405700
      3 OAU          2.1470     0.0000     1.5170 o          1 YL3      -0.709167
      4 OAV          2.1030    -1.2090    -0.6980 o          1 YL3      -0.709167
      5 CAR          2.2180     1.4870    -0.8600 c3         1 YL3       0.094600
      6 NAJ          1.8300     1.4280    -2.2720 nu         1 YL3      -0.204900
      7 C4           0.6740     2.0580    -2.6980 ca         1 YL3       0.492200
      8 N3          -0.0870     2.7210    -1.8400 nb         1 YL3      -0.627000
      9 C2          -1.1930     3.3260    -2.2330 ca         1 YL3       0.667900
     10 N1          -1.5960     3.3050    -3.4820 nb         1 YL3      -0.756000
     11 C6          -0.8960     2.6630    -4.4240 ca         1 YL3       0.605600
     12 SAE         -1.1820     2.4650    -6.1470 ss         1 YL3      -0.388900
     13 C5           0.2880     2.0080    -4.0630 ca         1 YL3      -0.446400
     14 CAC          0.9240     1.3700    -5.1950 cc         1 YL3       0.015800
     15 CAD          0.2750     1.5100    -6.3500 cd         1 YL3      -0.080600
     16 CAK          0.7300     0.9470    -7.6390 ca         1 YL3       0.064200
     17 CAL         -0.0220     1.1490    -8.7970 ca         1 YL3      -0.123500
     18 CAM          0.4100     0.6210    -9.9970 ca         1 YL3      -0.097000
     19 CAN          1.5850    -0.1070   -10.0540 ca         1 YL3      -0.147300
     20 CAQ          2.0500    -0.6810   -11.3670 c3         1 YL3       0.077200
     21 CAO          2.3350    -0.3100    -8.9090 ca         1 YL3      -0.097000
     22 CAP          1.9180     0.2160    -7.7040 ca         1 YL3      -0.123500
     23 H3           1.7860     2.3700    -0.4040 h1         1 YL3       0.030200
     24 H4           3.2970     1.5320    -0.7840 h1         1 YL3       0.030200
     25 H5           2.4220     0.9680    -2.9340 hn         1 YL3       0.254800
     26 H6          -1.7880     3.8580    -1.5000 h5         1 YL3      -0.025900
     27 H7           1.8500     0.8130    -5.1090 ha         1 YL3       0.109000
     28 H8          -0.9420     1.7190    -8.7540 ha         1 YL3       0.118000
     29 H9          -0.1730     0.7770   -10.8970 ha         1 YL3       0.090500
     30 H10          1.2170    -1.1620   -11.8650 hc         1 YL3      -0.005967
     31 H11          2.4340     0.1160   -11.9930 hc         1 YL3      -0.005967
     32 H12          2.8320    -1.4080   -11.1870 hc         1 YL3      -0.005967
     33 H13          3.2550    -0.8800    -8.9600 ha         1 YL3       0.090500
     34 H14          2.5060     0.0550    -6.8090 ha         1 YL3       0.118000
@<TRIPOS>BOND
     1     1     2 1   
     2     2     3 1   
     3     2     4 1   
     4     2     5 1   
     5     5     6 1   
     6     5    23 1   
     7     5    24 1   
     8     6     7 1   
     9     6    25 1   
    10     7     8 ar  
    11     7    13 ar  
    12     8     9 ar  
    13     9    10 ar  
    14     9    26 1   
    15    10    11 ar  
    16    11    12 1   
    17    11    13 ar  
    18    12    15 1   
    19    13    14 1   
    20    14    15 2   
    21    14    27 1   
    22    15    16 1   
    23    16    17 ar  
    24    16    22 ar  
    25    17    18 ar  
    26    17    28 1   
    27    18    19 ar  
    28    18    29 1   
    29    19    20 1   
    30    19    21 ar  
    31    20    30 1   
    32    20    31 1   
    33    20    32 1   
    34    21    22 ar  
    35    21    33 1   
    36    22    34 1   
@<TRIPOS>SUBSTRUCTURE
     1 YL3         1 TEMP              0 ****  ****    0 ROOT
