@<TRIPOS>MOLECULE
molecule
   34    36     1     0     0
SMALL
bcc


@<TRIPOS>ATOM
      1 OAT          0.0000     0.0000     0.0000 o          1 YL3      -0.889167
      2 PAS          1.6100     0.0000     0.0000 p5         1 YL3       0.999700
      3 OAU          2.1470     0.0000     1.5170 o          1 YL3      -0.889167
      4 OAV          2.1030    -1.2090    -0.6980 o          1 YL3      -0.889167
      5 CAR          2.2180     1.4870    -0.8600 c3         1 YL3       0.058600
      6 NAJ          1.8300     1.4280    -2.2720 nu         1 YL3      -0.768900
      7 C4           0.6740     2.0580    -2.6980 ca         1 YL3       0.767200
      8 N3          -0.0870     2.7210    -1.8400 nb         1 YL3      -0.753000
      9 C2          -1.1930     3.3260    -2.2330 ca         1 YL3       0.742900
     10 N1          -1.5960     3.3050    -3.4820 nb         1 YL3      -0.841000
     11 C6          -0.8960     2.6630    -4.4240 ca         1 YL3       0.584600
     12 SAE         -1.1820     2.4650    -6.1470 ss         1 YL3      -0.254900
     13 C5           0.2880     2.0080    -4.0630 ca         1 YL3      -0.426400
     14 CAC          0.9240     1.3700    -5.1950 cc         1 YL3      -0.025200
     15 CAD          0.2750     1.5100    -6.3500 cd         1 YL3      -0.082600
     16 CAK          0.7300     0.9470    -7.6390 ca         1 YL3       0.033200
     17 CAL         -0.0220     1.1490    -8.7970 ca         1 YL3      -0.133000
     18 CAM          0.4100     0.6210    -9.9970 ca         1 YL3      -0.124000
     19 CAN          1.5850    -0.1070   -10.0540 ca         1 YL3      -0.122300
     20 CAQ          2.0500    -0.6810   -11.3670 c3         1 YL3      -0.038800
     21 CAO          2.3350    -0.3100    -8.9090 ca         1 YL3      -0.124000
     22 CAP          1.9180     0.2160    -7.7040 ca         1 YL3      -0.133000
     23 H3           1.7860     2.3700    -0.4040 h1         1 YL3       0.045200
     24 H4           3.2970     1.5320    -0.7840 h1         1 YL3       0.045200
     25 H5           2.4220     0.9680    -2.9340 hn         1 YL3       0.433800
     26 H6          -1.7880     3.8580    -1.5000 h5         1 YL3       0.041100
     27 H7           1.8500     0.8130    -5.1090 ha         1 YL3       0.142000
     28 H8          -0.9420     1.7190    -8.7540 ha         1 YL3       0.138500
     29 H9          -0.1730     0.7770   -10.8970 ha         1 YL3       0.116000
     30 H10          1.2170    -1.1620   -11.8650 hc         1 YL3       0.030367
     31 H11          2.4340     0.1160   -11.9930 hc         1 YL3       0.030367
     32 H12          2.8320    -1.4080   -11.1870 hc         1 YL3       0.030367
     33 H13          3.2550    -0.8800    -8.9600 ha         1 YL3       0.116000
     34 H14          2.5060     0.0550    -6.8090 ha         1 YL3       0.138500
@<TRIPOS>BOND
     1     4     2 1
     2     2     3 1
     3     2     5 1
     4     2     1 1
     5     5     6 1
     6     6     7 1
     7    20    19 1
     8    21    19 ar
     9    21    22 ar
    10    14    13 1
    11    14    15 2
    12     7    13 ar
    13     7     8 ar
    14    19    18 ar
    15    22    16 ar
    16    18    17 ar
    17    13    11 ar
    18    16    17 ar
    19    16    15 1
    20     8     9 ar
    21    15    12 1
    22    11    12 1
    23    11    10 ar
    24     9    10 ar
    25     5    23 1
    26     5    24 1
    27     6    25 1
    28     9    26 1
    29    14    27 1
    30    17    28 1
    31    18    29 1
    32    20    30 1
    33    20    31 1
    34    20    32 1
    35    21    33 1
    36    22    34 1
@<TRIPOS>SUBSTRUCTURE
     1 YL3         1 TEMP              0 ****  ****    0 ROOT
