@<TRIPOS>MOLECULE
molecule
   49    53     1     0     0
SMALL
bcc


@<TRIPOS>ATOM
      1 CAT          0.0000     0.0000     0.0000 ca         1 YL4      -0.061000
      2 CAU          1.3780     0.0000     0.0000 ca         1 YL4      -0.175300
      3 CAY          2.3950     0.0000     1.1240 c3         1 YL4      -0.059100
      4 CAZ          3.6890     0.4120     0.3820 c3         1 YL4       0.130400
      5 OBA          3.4300    -0.0090    -0.9680 os         1 YL4      -0.345900
      6 CAV          2.0880     0.0060    -1.1930 ca         1 YL4       0.063100
      7 CAW          1.3850     0.0250    -2.3950 ca         1 YL4      -0.148000
      8 CAX          0.0050     0.0270    -2.3930 ca         1 YL4      -0.087000
      9 CAS         -0.6920     0.0130    -1.1980 ca         1 YL4      -0.023300
     10 CAR         -2.1990     0.0050    -1.2020 c3         1 YL4       0.139600
     11 PBB         -2.8150     1.7160    -1.3300 p5         1 YL4       0.972700
     12 OBD         -4.4190     1.6990    -1.4660 o          1 YL4      -0.873500
     13 OBE         -2.3960     2.5370    -0.0100 o          1 YL4      -0.873500
     14 OBC         -2.2250     2.3650    -2.5220 o          1 YL4      -0.873500
     15 NAQ         -2.6800    -0.7740    -2.3450 nu         1 YL4      -0.780900
     16 C4          -3.7040    -1.6880    -2.1780 ca         1 YL4       0.782200
     17 N3          -4.2580    -1.8660    -0.9880 nb         1 YL4      -0.781000
     18 C2          -5.2380    -2.7360    -0.8130 ca         1 YL4       0.742900
     19 N1          -5.7130    -3.4620    -1.7970 nb         1 YL4      -0.833000
     20 C6          -5.2190    -3.3540    -3.0370 ca         1 YL4       0.577600
     21 SAI         -5.6450    -4.1800    -4.5280 ss         1 YL4      -0.237900
     22 C5          -4.1840    -2.4450    -3.2800 ca         1 YL4      -0.414400
     23 CAL         -3.7710    -2.4460    -4.6660 cc         1 YL4      -0.031200
     24 CAH         -4.4330    -3.3040    -5.4420 cd         1 YL4      -0.070600
     25 CAE         -4.1860    -3.4840    -6.8890 ca         1 YL4       0.025200
     26 CAD         -3.2010    -2.7310    -7.5310 ca         1 YL4      -0.129000
     27 CAC         -2.9770    -2.9030    -8.8810 ca         1 YL4      -0.124500
     28 CAB         -3.7250    -3.8200    -9.5980 ca         1 YL4      -0.116300
     29 CAA         -3.4740    -4.0020   -11.0730 c3         1 YL4      -0.039800
     30 CAG         -4.7020    -4.5690    -8.9680 ca         1 YL4      -0.124500
     31 CAF         -4.9330    -4.4110    -7.6180 ca         1 YL4      -0.129000
     32 H1          -0.5420    -0.0110     0.9380 ha         1 YL4       0.143000
     33 H2           2.4960    -0.9900     1.5520 hc         1 YL4       0.046200
     34 H3           2.1340     0.7320     1.8790 hc         1 YL4       0.046200
     35 H4           4.5360    -0.1310     0.7840 h1         1 YL4       0.039700
     36 H5           3.8100     1.4880     0.4180 h1         1 YL4       0.039700
     37 H6           1.9230     0.0360    -3.3350 ha         1 YL4       0.109000
     38 H7          -0.5350     0.0380    -3.3320 ha         1 YL4       0.136000
     39 H8          -2.5600    -0.4410    -0.2830 h1         1 YL4       0.095700
     40 H11         -2.2910    -0.6200    -3.2540 hn         1 YL4       0.446800
     41 H12         -5.6640    -2.8520     0.1770 h5         1 YL4       0.041100
     42 H13         -2.9800    -1.8080    -5.0420 ha         1 YL4       0.147000
     43 H14         -2.6150    -2.0130    -6.9700 ha         1 YL4       0.139500
     44 H15         -2.2130    -2.3200    -9.3810 ha         1 YL4       0.118500
     45 H16         -2.5470    -4.5440   -11.2180 hc         1 YL4       0.032033
     46 H17         -4.2920    -4.5610   -11.5120 hc         1 YL4       0.032033
     47 H18         -3.4020    -3.0320   -11.5500 hc         1 YL4       0.032033
     48 H19         -5.2830    -5.2870    -9.5350 ha         1 YL4       0.118500
     49 H20         -5.6980    -4.9980    -7.1250 ha         1 YL4       0.139500
@<TRIPOS>BOND
     1     4     5 1
     2     4     3 1
     3     5     6 1
     4     6     7 ar
     5     6     2 ar
     6     3     2 1
     7     7     8 ar
     8     2     1 ar
     9     8     9 ar
    10     1     9 ar
    11     9    10 1
    12    10    15 1
    13    10    11 1
    14    15    16 1
    15    14    11 1
    16    16    17 ar
    17    16    22 ar
    18    17    18 ar
    19    13    11 1
    20    23    22 1
    21    23    24 2
    22    22    20 ar
    23    11    12 1
    24    18    19 ar
    25    26    27 ar
    26    26    25 ar
    27    24    25 1
    28    24    21 1
    29    27    28 ar
    30    20    19 ar
    31    20    21 1
    32    25    31 ar
    33    28    29 1
    34    28    30 ar
    35    31    30 ar
    36     1    32 1
    37     3    33 1
    38     3    34 1
    39     4    35 1
    40     4    36 1
    41     7    37 1
    42     8    38 1
    43    10    39 1
    44    15    40 1
    45    18    41 1
    46    23    42 1
    47    26    43 1
    48    27    44 1
    49    29    45 1
    50    29    46 1
    51    29    47 1
    52    30    48 1
    53    31    49 1
@<TRIPOS>SUBSTRUCTURE
     1 YL4         1 TEMP              0 ****  ****    0 ROOT
