@<TRIPOS>MOLECULE
molecule
   47    50     1     0     0
SMALL
bcc


@<TRIPOS>ATOM
      1 CAY          0.0000     0.0000     0.0000 ca         1 YL5      -0.170000
      2 CAZ          1.3840     0.0000     0.0000 ca         1 YL5       0.115900
      3 FBD          2.0610    -0.0010    -1.1700 f          1 YL5      -0.166900
      4 CBA          2.0760     0.0000     1.1990 ca         1 YL5      -0.208000
      5 CBB          1.3830     0.0010     2.3950 ca         1 YL5      -0.118000
      6 CBC          0.0000     0.0020     2.3940 ca         1 YL5      -0.142000
      7 CAX         -0.6910     0.0000     1.1970 ca         1 YL5      -0.014300
      8 CAV         -2.1980     0.0020     1.1970 c3         1 YL5      -0.036100
      9 CAC         -2.7090    -1.4370     1.1020 c3         1 YL5       0.096300
     10 PAA         -4.5250    -1.4490     1.2550 p5         1 YL5       0.985700
     11 OAD         -4.9430    -0.9470     2.7270 o          1 YL5      -0.881833
     12 OAU         -5.1110    -0.5450     0.2400 o          1 YL5      -0.881833
     13 OAE         -5.0740    -2.9440     1.0220 o          1 YL5      -0.881833
     14 NAB         -2.3230    -2.0080    -0.1910 nu         1 YL5      -0.782900
     15 C4          -1.7960    -3.2840    -0.2540 ca         1 YL5       0.783200
     16 N3          -1.6340    -4.0010     0.8480 nb         1 YL5      -0.778000
     17 C2          -1.1320    -5.2220     0.8030 ca         1 YL5       0.743900
     18 N1          -0.7690    -5.7880    -0.3240 nb         1 YL5      -0.834000
     19 C6          -0.8920    -5.1450    -1.4920 ca         1 YL5       0.579600
     20 SAN         -0.4980    -5.6380    -3.1320 ss         1 YL5      -0.240900
     21 C5          -1.4240    -3.8510    -1.5020 ca         1 YL5      -0.414400
     22 CAL         -1.4900    -3.2990    -2.8390 cc         1 YL5      -0.029200
     23 CAM         -1.0420    -4.1100    -3.7970 cd         1 YL5      -0.071600
     24 CAO         -1.0120    -3.7670    -5.2350 ca         1 YL5       0.027200
     25 CAP         -1.4630    -2.5180    -5.6670 ca         1 YL5      -0.129500
     26 CAQ         -1.4320    -2.2050    -7.0100 ca         1 YL5      -0.124500
     27 CAR         -0.9580    -3.1240    -7.9280 ca         1 YL5      -0.117300
     28 CAW         -0.9270    -2.7750    -9.3930 c3         1 YL5      -0.039800
     29 CAS         -0.5100    -4.3630    -7.5060 ca         1 YL5      -0.124500
     30 CAT         -0.5290    -4.6870    -6.1650 ca         1 YL5      -0.129500
     31 H1          -0.5420    -0.0010    -0.9380 ha         1 YL5       0.141000
     32 H2           3.1590    -0.0000     1.2000 ha         1 YL5       0.115000
     33 H3           1.9230     0.0010     3.3340 ha         1 YL5       0.111000
     34 H4          -0.5420     0.0020     3.3320 ha         1 YL5       0.145000
     35 H5          -2.5590     0.4540     2.1130 hc         1 YL5       0.074700
     36 H6          -2.5590     0.5700     0.3480 hc         1 YL5       0.074700
     37 H7          -2.2760    -2.0280     1.9010 h1         1 YL5       0.088700
     38 H10         -2.4920    -1.4950    -1.0340 hn         1 YL5       0.443800
     39 H11         -1.0160    -5.7750     1.7270 h5         1 YL5       0.040100
     40 H12         -1.8720    -2.3060    -3.0440 ha         1 YL5       0.145000
     41 H13         -1.8350    -1.7970    -4.9490 ha         1 YL5       0.139000
     42 H14         -1.7820    -1.2360    -7.3470 ha         1 YL5       0.117500
     43 H15         -1.3290    -3.5990    -9.9690 hc         1 YL5       0.031367
     44 H16         -1.5250    -1.8880    -9.5650 hc         1 YL5       0.031367
     45 H17          0.0950    -2.5850    -9.6980 hc         1 YL5       0.031367
     46 H18         -0.1370    -5.0780    -8.2290 ha         1 YL5       0.117500
     47 H19         -0.1780    -5.6580    -5.8360 ha         1 YL5       0.139000
@<TRIPOS>BOND
     1    12    10 1
     2    13    10 1
     3    18    17 ar
     4    18    19 ar
     5    17    16 ar
     6    20    19 1
     7    20    23 1
     8    19    21 ar
     9    10     9 1
    10    10    11 1
    11    16    15 ar
    12    21    15 ar
    13    21    22 1
    14    15    14 1
    15    23    22 2
    16    23    24 1
    17    25    24 ar
    18    25    26 ar
    19    24    30 ar
    20    26    27 ar
    21    30    29 ar
    22    27    29 ar
    23    27    28 1
    24    14     9 1
    25     9     8 1
    26     8     7 1
    27     1     7 ar
    28     1     2 ar
    29     7     6 ar
    30     3     2 1
    31     2     4 ar
    32     6     5 ar
    33     4     5 ar
    34     1    31 1
    35     4    32 1
    36     5    33 1
    37     6    34 1
    38     8    35 1
    39     8    36 1
    40     9    37 1
    41    14    38 1
    42    17    39 1
    43    22    40 1
    44    25    41 1
    45    26    42 1
    46    28    43 1
    47    28    44 1
    48    28    45 1
    49    29    46 1
    50    30    47 1
@<TRIPOS>SUBSTRUCTURE
     1 YL5         1 TEMP              0 ****  ****    0 ROOT
