@<TRIPOS>MOLECULE
molecule
   47    50     1     0     0
SMALL
bcc


@<TRIPOS>ATOM
      1 CAP          0.0000     0.0000     0.0000 ca         1 YL6      -0.117000
      2 CAQ          1.3800     0.0000     0.0000 ca         1 YL6       0.039400
      3 Cl           2.2470    -0.0010    -1.5050 cl         1 YL6      -0.129400
      4 CAR          2.0760     0.0000     1.1970 ca         1 YL6      -0.111300
      5 CAW          3.5830     0.0000     1.1900 c3         1 YL6      -0.040800
      6 CAS          1.3930     0.0010     2.4000 ca         1 YL6      -0.120000
      7 CAT          0.0140     0.0010     2.4130 ca         1 YL6      -0.137000
      8 CAO         -0.6940     0.0070     1.2110 ca         1 YL6       0.039200
      9 CAM         -2.1720     0.0080     1.2190 cc         1 YL6      -0.079600
     10 SAN         -3.1550     0.0100     2.6720 ss         1 YL6      -0.240900
     11 CAL         -2.9320     0.0120     0.1230 cd         1 YL6      -0.021200
     12 C5          -4.3560     0.0130     0.3770 ca         1 YL6      -0.416400
     13 C6          -4.6480     0.0100     1.7450 ca         1 YL6       0.582600
     14 N1          -5.9280     0.0120     2.1370 nb         1 YL6      -0.835000
     15 C2          -6.9050     0.0120     1.2610 ca         1 YL6       0.744900
     16 N3          -6.6840     0.0090    -0.0420 nb         1 YL6      -0.777000
     17 C4          -5.4520     0.0170    -0.5280 ca         1 YL6       0.782200
     18 NAB         -5.2340     0.0220    -1.8930 nu         1 YL6      -0.777900
     19 CAC         -6.3730     0.0270    -2.8150 c3         1 YL6       0.096300
     20 PAA         -6.5670    -1.6300    -3.5500 p5         1 YL6       0.983700
     21 OAD         -5.3870    -1.9390    -4.3900 o          1 YL6      -0.880500
     22 OAU         -6.6900    -2.7260    -2.3780 o          1 YL6      -0.880500
     23 OAE         -7.8950    -1.6640    -4.4580 o          1 YL6      -0.880500
     24 CAV         -6.1260     1.0500    -3.9250 c3         1 YL6      -0.036100
     25 CAX         -6.0940     2.4350    -3.3320 ca         1 YL6      -0.015300
     26 CAY         -4.8850     3.0150    -2.9940 ca         1 YL6      -0.174000
     27 CAZ         -4.8560     4.2860    -2.4490 ca         1 YL6       0.114900
     28 FBD         -3.6750     4.8530    -2.1180 f          1 YL6      -0.167900
     29 CBA         -6.0380     4.9790    -2.2440 ca         1 YL6      -0.208000
     30 CBB         -7.2450     4.3980    -2.5830 ca         1 YL6      -0.117000
     31 CBC         -7.2730     3.1290    -3.1320 ca         1 YL6      -0.139000
     32 H1          -0.5430     0.0040    -0.9370 ha         1 YL6       0.160000
     33 H2           3.9480    -0.0000     2.2090 hc         1 YL6       0.037700
     34 H3           3.9410     0.8850     0.6780 hc         1 YL6       0.037700
     35 H4           3.9420    -0.8840     0.6770 hc         1 YL6       0.037700
     36 H5           1.9420    -0.0010     3.3330 ha         1 YL6       0.121000
     37 H6          -0.5200     0.0040     3.3560 ha         1 YL6       0.137000
     38 H7          -2.5160     0.0140    -0.8770 ha         1 YL6       0.147000
     39 H8          -7.9280     0.0060     1.6180 h5         1 YL6       0.040100
     40 H9          -4.3010    -0.0300    -2.2510 hn         1 YL6       0.445800
     41 H10         -7.2740     0.2900    -2.2750 h1         1 YL6       0.087700
     42 H13         -5.1780     0.8410    -4.4060 hc         1 YL6       0.074700
     43 H14         -6.9230     0.9890    -4.6570 hc         1 YL6       0.074700
     44 H15         -3.9580     2.4980    -3.2120 ha         1 YL6       0.141000
     45 H16         -6.0150     5.9730    -1.8150 ha         1 YL6       0.115000
     46 H17         -8.1690     4.9400    -2.4240 ha         1 YL6       0.112000
     47 H18         -8.2200     2.6750    -3.3980 ha         1 YL6       0.147000
@<TRIPOS>BOND
     1    14    15 ar
     2    14    13 ar
     3    10    13 1
     4    10     9 1
     5    21    20 1
     6    15    16 ar
     7    13    12 ar
     8     7     6 ar
     9     7     8 ar
    10     9     8 1
    11     9    11 2
    12    16    17 ar
    13     6     4 ar
    14    12    11 1
    15    12    17 ar
    16     8     1 ar
    17    23    20 1
    18     4     5 1
    19     4     2 ar
    20     1     2 ar
    21    17    18 1
    22     2     3 1
    23    20    22 1
    24    20    19 1
    25    18    19 1
    26    19    24 1
    27    24    25 1
    28    31    25 ar
    29    31    30 ar
    30    25    26 ar
    31    30    29 ar
    32    26    27 ar
    33    29    27 ar
    34    27    28 1
    35     1    32 1
    36     5    33 1
    37     5    34 1
    38     5    35 1
    39     6    36 1
    40     7    37 1
    41    11    38 1
    42    15    39 1
    43    18    40 1
    44    19    41 1
    45    24    42 1
    46    24    43 1
    47    26    44 1
    48    29    45 1
    49    30    46 1
    50    31    47 1
@<TRIPOS>SUBSTRUCTURE
     1 YL6         1 TEMP              0 ****  ****    0 ROOT
