@<TRIPOS>MOLECULE
YL6
   47    50     1     0     0
SMALL
bcc


@<TRIPOS>ATOM
      1 CAP          0.0000     0.0000     0.0000 ca         1 YL6      -0.112000
      2 CAQ          1.3800     0.0000     0.0000 ca         1 YL6      -0.011600
      3 Cl           2.2470    -0.0010    -1.5050 cl         1 YL6      -0.059400
      4 CAR          2.0760     0.0000     1.1970 ca         1 YL6      -0.135300
      5 CAW          3.5830     0.0000     1.1900 c3         1 YL6       0.069200
      6 CAS          1.3930     0.0010     2.4000 ca         1 YL6      -0.092000
      7 CAT          0.0140     0.0010     2.4130 ca         1 YL6      -0.121000
      8 CAO         -0.6940     0.0070     1.2110 ca         1 YL6       0.067200
      9 CAM         -2.1720     0.0080     1.2190 cc         1 YL6      -0.069600
     10 SAN         -3.1550     0.0100     2.6720 ss         1 YL6      -0.375900
     11 CAL         -2.9320     0.0120     0.1230 cd         1 YL6       0.021800
     12 C5          -4.3560     0.0130     0.3770 ca         1 YL6      -0.437400
     13 C6          -4.6480     0.0100     1.7450 ca         1 YL6       0.604600
     14 N1          -5.9280     0.0120     2.1370 nb         1 YL6      -0.751000
     15 C2          -6.9050     0.0120     1.2610 ca         1 YL6       0.683900
     16 N3          -6.6840     0.0090    -0.0420 nb         1 YL6      -0.664000
     17 C4          -5.4520     0.0170    -0.5280 ca         1 YL6       0.526200
     18 NAB         -5.2340     0.0220    -1.8930 nu         1 YL6      -0.228900
     19 CAC         -6.3730     0.0270    -2.8150 c3         1 YL6       0.087300
     20 PAA         -6.5670    -1.6300    -3.5500 p5         1 YL6       0.401700
     21 OAD         -5.3870    -1.9390    -4.3900 o          1 YL6      -0.706500
     22 OAU         -6.6900    -2.7260    -2.3780 o          1 YL6      -0.706500
     23 OAE         -7.8950    -1.6640    -4.4580 o          1 YL6      -0.706500
     24 CAV         -6.1260     1.0500    -3.9250 c3         1 YL6       0.041900
     25 CAX         -6.0940     2.4350    -3.3320 ca         1 YL6      -0.031300
     26 CAY         -4.8850     3.0150    -2.9940 ca         1 YL6      -0.150000
     27 CAZ         -4.8560     4.2860    -2.4490 ca         1 YL6       0.084900
     28 FBD         -3.6750     4.8530    -2.1180 f          1 YL6      -0.148900
     29 CBA         -6.0380     4.9790    -2.2440 ca         1 YL6      -0.181000
     30 CBB         -7.2450     4.3980    -2.5830 ca         1 YL6      -0.091000
     31 CBC         -7.2730     3.1290    -3.1320 ca         1 YL6      -0.107000
     32 H1          -0.5430     0.0040    -0.9370 ha         1 YL6       0.133000
     33 H2           3.9480    -0.0000     2.2090 hc         1 YL6       0.001367
     34 H3           3.9410     0.8850     0.6780 hc         1 YL6       0.001367
     35 H4           3.9420    -0.8840     0.6770 hc         1 YL6       0.001367
     36 H5           1.9420    -0.0010     3.3330 ha         1 YL6       0.094000
     37 H6          -0.5200     0.0040     3.3560 ha         1 YL6       0.120000
     38 H7          -2.5160     0.0140    -0.8770 ha         1 YL6       0.115000
     39 H8          -7.9280     0.0060     1.6180 h5         1 YL6      -0.025900
     40 H9          -4.3010    -0.0300    -2.2510 hn         1 YL6       0.272800
     41 H10         -7.2740     0.2900    -2.2750 h1         1 YL6       0.073700
     42 H13         -5.1780     0.8410    -4.4060 hc         1 YL6       0.042200
     43 H14         -6.9230     0.9890    -4.6570 hc         1 YL6       0.042200
     44 H15         -3.9580     2.4980    -3.2120 ha         1 YL6       0.119000
     45 H16         -6.0150     5.9730    -1.8150 ha         1 YL6       0.097000
     46 H17         -8.1690     4.9400    -2.4240 ha         1 YL6       0.087000
     47 H18         -8.2200     2.6750    -3.3980 ha         1 YL6       0.123000
@<TRIPOS>BOND
     1     1     2 ar  
     2     1     8 ar  
     3     1    32 1   
     4     2     3 1   
     5     2     4 ar  
     6     4     5 1   
     7     4     6 ar  
     8     5    33 1   
     9     5    34 1   
    10     5    35 1   
    11     6     7 ar  
    12     6    36 1   
    13     7     8 ar  
    14     7    37 1   
    15     8     9 1   
    16     9    10 1   
    17     9    11 2   
    18    10    13 1   
    19    11    12 1   
    20    11    38 1   
    21    12    13 ar  
    22    12    17 ar  
    23    13    14 ar  
    24    14    15 ar  
    25    15    16 ar  
    26    15    39 1   
    27    16    17 ar  
    28    17    18 1   
    29    18    19 1   
    30    18    40 1   
    31    19    20 1   
    32    19    24 1   
    33    19    41 1   
    34    20    21 1   
    35    20    22 1   
    36    20    23 1   
    37    24    25 1   
    38    24    42 1   
    39    24    43 1   
    40    25    26 ar  
    41    25    31 ar  
    42    26    27 ar  
    43    26    44 1   
    44    27    28 1   
    45    27    29 ar  
    46    29    30 ar  
    47    29    45 1   
    48    30    31 ar  
    49    30    46 1   
    50    31    47 1   
@<TRIPOS>SUBSTRUCTURE
     1 YL6         1 TEMP              0 ****  ****    0 ROOT
