@<TRIPOS>MOLECULE
YLA
   68    69     1     0     0
SMALL
bcc


@<TRIPOS>ATOM
      1 C           0.3270   -0.1660   -0.2990 c2        1 YLA      0.320000
      2 N           0.2820   -1.7340   -2.1890 n4        1 YLA     -0.066000
      3 O          -0.0400   -0.8690    0.6510 o         1 YLA     -0.350000
      4 N1         -6.2310    8.9750   -3.1160 n2        1 YLA     -0.169000
      5 O1          4.4000    1.2160    4.9200 os        1 YLA     -0.246000
      6 C2         -5.9740    8.8770   -1.7820 c2        1 YLA     -0.023000
      7 C3          5.0530    1.9250    6.0220 c3        1 YLA      0.128000
      8 N3         -5.4700    7.8270   -1.0880 n2        1 YLA     -0.156000
      9 C4         -5.1800    6.7310   -1.8310 c2        1 YLA     -0.011000
     10 C5         -5.4110    6.7050   -3.3200 c2        1 YLA     -0.148000
     11 C6         -5.9480    7.8810   -3.8670 c2        1 YLA     -0.049000
     12 N6         -6.2210    7.9150   -5.3170 n4        1 YLA     -0.002000
     13 C7          4.1150    2.7030    6.7680 c1        1 YLA     -0.273000
     14 N7         -5.0310    5.4760   -3.8130 n2        1 YLA     -0.227000
     15 C8         -4.6030    4.8050   -2.6900 c2        1 YLA     -0.039000
     16 C9          3.3720    3.3610    7.4370 c1        1 YLA     -0.072000
     17 N9         -4.6620    5.4820   -1.4870 n2        1 YLA     -0.326000
     18 CA          1.1000   -0.6690   -1.5110 c3        1 YLA     -0.087000
     19 CB          2.4710   -1.2110   -1.0790 c3        1 YLA     -0.173000
     20 C1'        -4.4750    5.5260    1.1090 c2        1 YLA      0.287000
     21 C2'        -5.0840    4.1570    1.3590 c3        1 YLA     -0.024000
     22 O2'        -6.0330    4.2080    2.3840 oh        1 YLA     -0.273000
     23 C3'        -3.8410    3.2550    1.5990 c3        1 YLA     -0.005000
     24 O3'        -3.9010    2.7320    2.9000 oh        1 YLA     -0.333000
     25 C4'        -2.6220    4.2040    1.4850 c3        1 YLA     -0.061000
     26 O4'        -3.1740    5.5360    1.1150 os        1 YLA     -0.066000
     27 C5'        -1.5830    3.7930    0.4340 c3        1 YLA      0.053000
     28 O5'        -0.4530    3.2380    1.0400 os        1 YLA     -0.731000
     29 OAD         4.5930    3.0400    3.5430 o         1 YLA     -0.235000
     30 OAF        -1.8170    1.2830    1.5420 o         1 YLA     -0.832500
     31 OAI         0.8530    1.3310    2.0170 o         1 YLA     -0.832500
     32 CAM         3.2370   -0.8120    1.2750 c3        1 YLA     -0.192000
     33 CAN         3.1960   -0.2600   -0.1370 c3        1 YLA     -0.166000
     34 CAO         4.0820    0.0360    2.2160 c3        1 YLA     -0.110000
     35 NAW         3.3220    1.1590    2.8380 n4        1 YLA     -0.061000
     36 OAY         0.0330    1.1190   -0.2630 os        1 YLA     -0.648000
     37 CBA         4.1610    1.9250    3.7960 c2        1 YLA      0.338000
     38 PBN        -0.4120    1.6320    1.3240 p5        1 YLA      1.985000
     39 HN         -0.0170   -2.4300   -1.4910 hn        1 YLA      0.267000
     40 HNA        -0.5500   -1.3140   -2.6160 hn        1 YLA      0.267000
     41 H3          5.4520    1.0540    6.6210 h1        1 YLA      0.151500
     42 H3A         5.8870    2.5560    5.6090 h1        1 YLA      0.151500
     43 HN6        -6.4970    8.8550   -5.6230 hn        1 YLA      0.261000
     44 HN6A       -5.3730    7.6190   -5.8110 hn        1 YLA      0.261000
     45 H9          2.7170    3.9490    8.0370 ha        1 YLA      0.245000
     46 HA          1.2370    0.1840   -2.2450 hx        1 YLA      0.183000
     47 HB          2.3440   -2.2090   -0.5760 hc        1 YLA      0.119000
     48 HBA         3.0960   -1.3680   -1.9990 hc        1 YLA      0.119000
     49 H1'        -5.0040    6.4920    0.9670 h4        1 YLA      0.267000
     50 H2'        -5.6460    3.8460    0.4270 h1        1 YLA      0.193000
     51 HO2'       -5.6380    3.8760    3.2080 ho        1 YLA      0.254000
     52 H3'        -3.7920    2.4370    0.8310 h1        1 YLA      0.159000
     53 HO3'       -3.5060    1.8410    2.8710 ho        1 YLA      0.281000
     54 H4'        -2.1400    4.3900    2.4850 h1        1 YLA      0.172000
     55 H5'        -2.0290    3.0470   -0.2800 h1        1 YLA      0.107500
     56 H5'A       -1.2380    4.7100   -0.1220 h1        1 YLA      0.107500
     57 HAM         2.1840   -0.9160    1.6650 hc        1 YLA      0.135000
     58 HAMA        3.6970   -1.8390    1.2660 hc        1 YLA      0.135000
     59 HAN         4.2450   -0.1170   -0.5150 hc        1 YLA      0.113500
     60 HANA        2.7030    0.7490   -0.1360 hc        1 YLA      0.113500
     61 HAO         4.4670   -0.6100    3.0600 hx        1 YLA      0.145500
     62 HAOA        4.9630    0.4780    1.6690 hx        1 YLA      0.145500
     63 HNAW        2.9580    1.8020    2.1100 hn        1 YLA      0.301500
     64 H8         -4.2350    3.7730   -2.7500 h5        1 YLA      0.179000
     65 HN3         0.8420   -2.1970   -2.9120 hn        1 YLA      0.267000
     66 H63        -6.9770    7.2510   -5.5180 hn        1 YLA      0.261000
     67 HAW2        2.4760    0.7890    3.3180 hn        1 YLA      0.301500
     68 H2         -6.2160    9.7870   -1.1920 h5        1 YLA      0.213000
@<TRIPOS>BOND
     1    1    3 1   
     2    1   18 1   
     3    1   36 1   
     4    2   18 1   
     5    2   39 1   
     6    2   40 1   
     7    2   65 1   
     8    4    6 1   
     9    4   11 1   
    10    5    7 1   
    11    5   37 1   
    12    6    8 1   
    13    6   68 1   
    14    7   13 1   
    15    7   41 1   
    16    7   42 1   
    17    8    9 1   
    18    9   10 1   
    19    9   17 1   
    20   10   11 1   
    21   10   14 1   
    22   11   12 1   
    23   12   43 1   
    24   12   44 1   
    25   12   66 1   
    26   13   16 1   
    27   14   15 1   
    28   15   17 1   
    29   15   64 1   
    30   16   45 1   
    31   18   19 1   
    32   18   46 1   
    33   19   33 1   
    34   19   47 1   
    35   19   48 1   
    36   20   21 1   
    37   20   26 1   
    38   20   49 1   
    39   21   22 1   
    40   21   23 1   
    41   21   50 1   
    42   22   51 1   
    43   23   24 1   
    44   23   25 1   
    45   23   52 1   
    46   24   53 1   
    47   25   26 1   
    48   25   27 1   
    49   25   54 1   
    50   27   28 1   
    51   27   55 1   
    52   27   56 1   
    53   28   38 1   
    54   29   37 1   
    55   30   38 1   
    56   31   38 1   
    57   32   33 1   
    58   32   34 1   
    59   32   57 1   
    60   32   58 1   
    61   33   59 1   
    62   33   60 1   
    63   34   35 1   
    64   34   61 1   
    65   34   62 1   
    66   35   37 1   
    67   35   63 1   
    68   35   67 1   
    69   36   38 1   
@<TRIPOS>SUBSTRUCTURE
     1 YLA         1 TEMP              0 ****  ****    0 ROOT
