@<TRIPOS>MOLECULE
molecule
   66    68     1     0     0
SMALL
bcc


@<TRIPOS>ATOM
      1 C            0.0000     0.0000     0.0000 c          1 YLA       0.712100
      2 N            1.9970    -1.1980    -0.6930 nz         1 YLA      -0.812600
      3 O           -0.6040    -1.0300    -0.1830 o          1 YLA      -0.470000
      4 N1          -4.1900    -0.0000     7.7740 nb         1 YLA      -0.692000
      5 O1           7.8370     0.3530     5.7850 os         1 YLA      -0.397900
      6 C2          -3.3120    -0.0000     6.6790 ca         1 YLA       0.630900
      7 C3           9.2710     0.4660     5.9770 c3         1 YLA       0.217500
      8 N3          -3.2890     0.5430     5.6370 nb         1 YLA      -0.694000
      9 C4          -4.3240     1.5170     5.1090 ca         1 YLA       0.276800
     10 C5          -5.3730     1.7150     6.0480 ca         1 YLA      -0.034200
     11 C6          -5.2310     1.0460     7.1210 ca         1 YLA       0.676200
     12 N6          -6.3150     0.0020     7.2490 nv         1 YLA      -1.067500
     13 C7           9.5770     0.4490     7.4170 c1         1 YLA      -0.161100
     14 N7          -6.2090     2.5460     5.5400 nc         1 YLA      -0.509100
     15 C8          -5.9420     2.2910     4.1520 cd         1 YLA       0.425700
     16 C9           9.8050     0.4470     8.5680 c1         1 YLA      -0.096500
     17 N9          -4.4770     2.2100     4.0060 na         1 YLA      -0.195000
     18 CA           1.5070     0.0000     0.0000 c3         1 YLA       0.031500
     19 CB           2.0170     0.0000     1.4420 c3         1 YLA      -0.399400
     20 C1'         -4.1310     3.9710     0.2880 c3         1 YLA      -0.256200
     21 C2'         -4.5920     3.4860     1.6460 c3         1 YLA       0.043100
     22 O2'         -5.0810     4.1260     2.8140 oh         1 YLA      -0.609800
     23 C3'         -3.8000     2.2750     2.0510 c3         1 YLA       0.182100
     24 O3'         -3.3250     2.4060     3.3110 oh         1 YLA      -0.432800
     25 C4'         -3.1190     2.2480     1.0430 c3         1 YLA      -0.862900
     26 O4'         -3.3840     3.1370     0.2590 os         1 YLA       1.064400
     27 C5'         -4.2940     2.8180     0.2040 c3         1 YLA      -0.297600
     28 O5'         -2.8940     2.5460     0.2980 os         1 YLA       0.505800
     29 OAD          8.1720     0.4450     3.5930 o          1 YLA      -0.616000
     30 OAF         -2.7250     0.4470    -1.0930 o          1 YLA      -0.792000
     31 OAI         -2.7860     0.1690     1.4140 o          1 YLA      -0.792000
     32 CAM          4.0530     0.1250     2.8860 c3         1 YLA      -0.085400
     33 CAN          3.5420     0.1250     1.4430 c3         1 YLA      -0.127400
     34 CAO          5.5780     0.2520     2.8870 c3         1 YLA       0.060000
     35 NAW          6.0660     0.2520     4.2690 ns         1 YLA      -0.363900
     36 OAY         -0.6710     1.1450     0.1960 os         1 YLA      -0.564500
     37 CBA          7.3870     0.3530     4.5160 c          1 YLA       0.687100
     38 PBN         -2.2790     1.0630     0.1770 p5         1 YLA       2.040800
     39 HN           2.9720    -1.3200    -0.5020 hn         1 YLA       0.465800
     40 HNA          1.4920    -2.0000    -0.3720 hn         1 YLA       0.465800
     41 H3           9.7850     0.0050     5.1420 h1         1 YLA       0.087200
     42 H3A          9.5460     1.5120     6.0370 h1         1 YLA       0.087200
     43 HN6         -6.4240    -0.9350     6.9160 hn         1 YLA       0.415800
     44 HN6A        -7.0020     0.1170     7.9680 hn         1 YLA       0.415800
     45 H9          10.0210     0.4280     9.6290 ha         1 YLA       0.175500
     46 HA           1.8680     0.8850    -0.5100 hx         1 YLA       0.092700
     47 HB           1.9330     0.8030     2.1650 hc         1 YLA       0.203200
     48 HBA          3.0690    -0.2070     1.2880 hc         1 YLA       0.203200
     49 H1'         -3.6990     3.2530    -0.3990 h2         1 YLA      -0.544300
     50 H2'         -3.7550     4.1060     1.9420 h1         1 YLA       0.162700
     51 HO2'        -6.0070     3.9850     2.9220 ho         1 YLA       0.388000
     52 H3'         -4.4190     1.3870     2.0870 h1         1 YLA       0.163700
     53 HO3'        -3.7540     2.1770     4.1190 ho         1 YLA       0.667000
     54 H4'         -2.4320     1.5580     0.5680 h1         1 YLA      -0.890300
     55 H5'         -3.7920     3.6850    -0.2090 h1         1 YLA       0.004200
     56 H5'A        -4.8920     3.2050     1.0210 h1         1 YLA       0.004200
     57 HAM          3.5090    -0.7630     3.1830 hc         1 YLA       0.086700
     58 HAMA         3.4020     0.8510     3.3580 hc         1 YLA       0.086700
     59 HAN          4.0470    -0.7670     1.0930 hc         1 YLA       0.035700
     60 HANA         3.8650     0.7620     0.6280 hc         1 YLA       0.035700
     61 HAO          5.5610     1.2910     2.5840 h1         1 YLA       0.069200
     62 HAOA         5.8430    -0.4360     2.0930 h1         1 YLA       0.069200
     63 HNAW         6.5040    -0.6340     4.4290 hn         1 YLA       0.252500
     64 H8          -6.3700     2.8960     3.3630 h5         1 YLA       0.062800
     65 HN3          2.0820    -0.7130    -1.5650 hn         1 YLA       0.465800
     66 H2          -2.4190    -0.3700     7.1680 h5         1 YLA       0.040100
@<TRIPOS>BOND
     1     1     3 2
     2     1    18 1
     3     1    36 1
     4     2    18 1
     5     4     6 ar
     6     4    11 ar
     7     5     7 1
     8     5    37 1
     9     6     8 ar
    10     7    13 1
    11     8     9 ar
    12     9    10 ar
    13     9    17 1
    14    10    11 ar
    15    10    14 1
    16    11    12 1
    17    13    16 3
    18    14    15 2
    19    15    17 1
    20    17    20 1
    21    18    19 1
    22    19    33 1
    23    20    21 1
    24    20    26 1
    25    21    22 1
    26    21    23 1
    27    23    24 1
    28    23    25 1
    29    25    26 1
    30    25    27 1
    31    27    28 1
    32    28    38 1
    33    29    37 2
    34    30    38 1
    35    31    38 1
    36    32    33 1
    37    32    34 1
    38    34    35 1
    39    35    37 1
    40    36    38 1
    41     2    39 1
    42     2    40 1
    43     6    66 1
    44     7    41 1
    45     7    42 1
    46    12    43 1
    47    12    44 1
    48    15    64 1
    49    16    45 1
    50    18    46 1
    51    19    47 1
    52    19    48 1
    53    20    49 1
    54    21    50 1
    55    22    51 1
    56    23    52 1
    57    24    53 1
    58    25    54 1
    59    27    55 1
    60    27    56 1
    61    32    57 1
    62    32    58 1
    63    33    59 1
    64    33    60 1
    65    34    61 1
    66    34    62 1
    67    35    63 1
    68    65     2 1
@<TRIPOS>SUBSTRUCTURE
     1 YLA         1 TEMP              0 ****  ****    0 ROOT
