@<TRIPOS>MOLECULE
YLB
   69    71     1     0     0
SMALL
bcc


@<TRIPOS>ATOM
      1 C            0.0000     0.0000     0.0000 c          1 YLB       0.759100
      2 N            1.9960    -1.1990    -0.6930 nz         1 YLB       0.080400
      3 O           -0.6040    -1.0300    -0.1810 o          1 YLB      -0.548000
      4 N1          -5.5140    10.0590    -4.3800 nb         1 YLB      -0.663000
      5 C2          -5.8160    10.0150    -3.0960 ca         1 YLB       0.625900
      6 C3           9.9250     0.4760     7.3800 c3         1 YLB       0.003900
      7 N3          -5.5910     8.9530    -2.3530 nb         1 YLB      -0.597000
      8 C4          -5.0390     7.8630    -2.8780 ca         1 YLB       0.225800
      9 C5          -4.6990     7.8590    -4.2400 ca         1 YLB      -0.180200
     10 C6          -4.9600     9.0170    -4.9920 ca         1 YLB       0.589200
     11 N6          -4.6470     9.0730    -6.3400 nv         1 YLB      -0.644500
     12 N7          -4.1620     6.6460    -4.5150 nc         1 YLB      -0.520100
     13 C8          -4.1510     5.9230    -3.4330 cd         1 YLB       0.273700
     14 N9          -4.6810     6.6290    -2.3950 na         1 YLB       0.223000
     15 CA           1.5070     0.0000     0.0000 c3         1 YLB      -0.171500
     16 CB           2.0180     0.0000     1.4420 c3         1 YLB      -0.029400
     17 C1'         -4.8410     6.1580    -1.0170 c3         1 YLB       0.141800
     18 C2'         -6.2640     5.5850    -0.7970 c3         1 YLB       0.130100
     19 O2'         -7.1820     6.6230    -0.4440 oh         1 YLB      -0.543800
     20 C3'         -6.0440     4.6150     0.3890 c3         1 YLB       0.131100
     21 O3'         -6.4120     5.2390     1.6210 oh         1 YLB      -0.557800
     22 C4'         -4.5310     4.3240     0.3620 c3         1 YLB       0.136100
     23 O4'         -3.9800     5.0270    -0.7640 os         1 YLB      -0.385600
     24 C5'         -4.2930     2.8210     0.2050 c3         1 YLB       0.314400
     25 O5'         -2.8930     2.5480     0.2980 os         1 YLB      -0.503200
     26 OAD          8.1720     0.4430     3.5950 o          1 YLB      -0.645100
     27 OAF         -2.7250     0.4490    -1.0930 o          1 YLB      -0.610500
     28 OAI         -2.7870     0.1700     1.4150 o          1 YLB      -0.610500
     29 CAM          4.0530     0.1250     2.8860 c3         1 YLB      -0.035400
     30 CAN          3.5420     0.1250     1.4440 c3         1 YLB      -0.035400
     31 CAO          5.5780     0.2500     2.8880 c3         1 YLB       0.054000
     32 NAW          6.0670     0.2490     4.2680 ns         1 YLB      -0.208900
     33 OAY         -0.6710     1.1460     0.1980 os         1 YLB      -0.414500
     34 CBA          7.3870     0.3510     4.5160 c          1 YLB       0.574100
     35 CBF          9.4150     0.4760     5.9380 c3         1 YLB      -0.013400
     36 CBK          7.8900     0.3510     5.9360 c3         1 YLB      -0.095400
     37 PBN         -2.2790     1.0640     0.1760 p5         1 YLB       0.909800
     38 HN           2.9270    -1.0380    -1.0230 hn         1 YLB       0.223800
     39 HNA          1.9960    -1.9740    -0.0600 hn         1 YLB       0.223800
     40 H3           9.4930     1.3130     7.9150 hc         1 YLB       0.001033
     41 H3A          9.6370    -0.4490     7.8650 hc         1 YLB       0.001033
     42 H3B         11.0050     0.5640     7.3830 hc         1 YLB       0.001033
     43 HN6         -5.3300     8.8100    -7.0230 hn         1 YLB       0.278300
     44 HN6A        -3.7550     9.4180    -6.6320 hn         1 YLB       0.278300
     45 HA           1.8680     0.8850    -0.5110 hx         1 YLB       0.098700
     46 HB           1.5860     0.8370     1.9780 hc         1 YLB       0.062200
     47 HBA          1.7300    -0.9250     1.9270 hc         1 YLB       0.062200
     48 H1'         -4.6390     6.9530    -0.3090 h2         1 YLB       0.066700
     49 H2'         -6.6000     5.0470    -1.6750 h1         1 YLB       0.021700
     50 HO2'        -8.0330     6.4230    -0.7970 ho         1 YLB       0.387000
     51 H3'         -6.6060     3.7020     0.2370 h1         1 YLB       0.017700
     52 HO3'        -6.9460     4.6480     2.1250 ho         1 YLB       0.389000
     53 H4'         -4.0730     4.6810     1.2770 h1         1 YLB       0.044700
     54 H5'         -4.8180     2.2880     0.9880 h1         1 YLB      -0.004800
     55 H5'A        -4.6600     2.4970    -0.7610 h1         1 YLB      -0.004800
     56 HAM          3.6210     0.9610     3.4220 hc         1 YLB       0.027700
     57 HAMA         3.7660    -0.8010     3.3710 hc         1 YLB       0.027700
     58 HAN          3.8290     1.0500     0.9590 hc         1 YLB       0.009700
     59 HANA         3.9740    -0.7120     0.9080 hc         1 YLB       0.009700
     60 HAO          5.8640     1.1760     2.4040 h1         1 YLB       0.024700
     61 HAOA         6.0090    -0.5860     2.3510 h1         1 YLB       0.024700
     62 HNAW         5.4190     0.1730     5.0280 hn         1 YLB       0.177500
     63 HBF          9.8460    -0.3610     5.4020 hc         1 YLB       0.027700
     64 HBFA         9.7020     1.4010     5.4530 hc         1 YLB       0.027700
     65 HBK          7.6030    -0.5740     6.4210 hc         1 YLB       0.028700
     66 HBKA         7.4590     1.1880     6.4720 hc         1 YLB       0.028700
     67 H8          -3.7280     4.9280    -3.4880 h5         1 YLB       0.051800
     68 HN3          1.3960    -1.4050    -1.4670 hn         1 YLB       0.223800
     69 H2          -6.2650    10.8890    -2.6400 h5         1 YLB      -0.002900
@<TRIPOS>BOND
     1     1     3 2   
     2     1    15 1   
     3     1    33 1   
     4     2    15 1   
     5     2    38 1   
     6     2    39 1   
     7     2    68 1   
     8     4     5 ar  
     9     4    10 ar  
    10     5     7 ar  
    11     5    69 1   
    12     6    35 1   
    13     6    40 1   
    14     6    41 1   
    15     6    42 1   
    16     7     8 ar  
    17     8     9 ar  
    18     8    14 1   
    19     9    10 ar  
    20     9    12 1   
    21    10    11 1   
    22    11    43 1   
    23    11    44 1   
    24    12    13 2   
    25    13    14 1   
    26    13    67 1   
    27    14    17 1   
    28    15    16 1   
    29    15    45 1   
    30    16    30 1   
    31    16    46 1   
    32    16    47 1   
    33    17    18 1   
    34    17    23 1   
    35    17    48 1   
    36    18    19 1   
    37    18    20 1   
    38    18    49 1   
    39    19    50 1   
    40    20    21 1   
    41    20    22 1   
    42    20    51 1   
    43    21    52 1   
    44    22    23 1   
    45    22    24 1   
    46    22    53 1   
    47    24    25 1   
    48    24    54 1   
    49    24    55 1   
    50    25    37 1   
    51    26    34 2   
    52    27    37 1   
    53    28    37 1   
    54    29    30 1   
    55    29    31 1   
    56    29    56 1   
    57    29    57 1   
    58    30    58 1   
    59    30    59 1   
    60    31    32 1   
    61    31    60 1   
    62    31    61 1   
    63    32    34 1   
    64    32    62 1   
    65    33    37 1   
    66    34    36 1   
    67    35    36 1   
    68    35    63 1   
    69    35    64 1   
    70    36    65 1   
    71    36    66 1   
@<TRIPOS>SUBSTRUCTURE
     1 YLB         1 TEMP              0 ****  ****    0 ROOT
