@<TRIPOS>MOLECULE
YLC
   67    71     1     0     0
SMALL
bcc


@<TRIPOS>ATOM
      1 C            0.0000     0.0000     0.0000 c2         1 YLC       0.431000
      2 N            1.9960    -1.2000    -0.6920 nz         1 YLC       0.831000
      3 O           -0.6040    -1.0300    -0.1820 o          1 YLC      -0.354000
      4 N1          -5.5130    10.0560    -4.3880 n2         1 YLC      -0.138000
      5 C2          -5.8170    10.0130    -3.1030 c2         1 YLC      -0.037000
      6 C3           9.6790     0.4530     7.5740 DU         1 YLC      -0.050000
      7 N3          -5.5910     8.9500    -2.3590 n2         1 YLC      -0.072000
      8 C4          -5.0390     7.8620    -2.8830 c2         1 YLC      -0.163000
      9 C5          -4.6980     7.8570    -4.2470 c2         1 YLC      -0.190000
     10 C6          -4.9590     9.0150    -4.9990 c2         1 YLC       0.068000
     11 N6          -4.6450     9.0690    -6.3460 nv         1 YLC      -0.040000
     12 N7          -4.1600     6.6440    -4.5190 n2         1 YLC      -0.081000
     13 C8          -4.1490     5.9210    -3.4370 c2         1 YLC      -0.177000
     14 N9          -4.6810     6.6280    -2.4010 na         1 YLC       0.291000
     15 CA           1.5070     0.0000     0.0000 c3         1 YLC      -0.317000
     16 CB           2.0170     0.0000     1.4430 c3         1 YLC      -0.106000
     17 C1'         -4.8410     6.1560    -1.0220 c3         1 YLC       0.056000
     18 C2'         -6.2640     5.5840    -0.8040 c3         1 YLC       0.015000
     19 O2'         -7.1830     6.6200    -0.4510 oh         1 YLC      -0.271000
     20 C3'         -6.0450     4.6130     0.3820 c3         1 YLC       0.017000
     21 O3'         -6.4130     5.2370     1.6140 oh         1 YLC      -0.285000
     22 C4'         -4.5320     4.3230     0.3580 c3         1 YLC       0.030000
     23 O4'         -3.9810     5.0260    -0.7680 os         1 YLC      -0.243000
     24 C5'         -4.2940     2.8200     0.2010 c3         1 YLC       0.164000
     25 O5'         -2.8940     2.5480     0.2950 os         1 YLC      -0.664000
     26 OAD          8.1710     0.4450     3.5980 o          1 YLC      -0.439000
     27 OAF         -2.7250     0.4470    -1.0950 o          1 YLC      -0.610000
     28 OAI         -2.7880     0.1700     1.4130 o          1 YLC      -0.610000
     29 CAM          4.0510     0.1260     2.8890 c3         1 YLC      -0.113000
     30 CAN          3.5410     0.1250     1.4450 c3         1 YLC      -0.114000
     31 CAO          5.5750     0.2510     2.8910 c3         1 YLC      -0.057000
     32 NAW          6.0630     0.2520     4.2720 n7         1 YLC      -0.036000
     33 OAY         -0.6710     1.1460     0.1960 os         1 YLC      -0.557000
     34 CBA          7.3850     0.3530     4.5200 c3         1 YLC       0.290000
     35 CBF          9.1770     0.4540     6.1520 c2         1 YLC      -0.069000
     36 CBK          7.8740     0.3530     5.9070 c2         1 YLC      -0.174000
     37 PBN         -2.2790     1.0650     0.1740 p5         1 YLC       1.375000
     38 HN           2.3860    -1.8340    -0.0230 hn         1 YLC       0.023000
     39 HNA          2.7000    -0.9390    -1.3540 hn         1 YLC       0.023000
     40 H3          10.4750     1.1810     7.6760 ha         1 YLC       0.051333
     41 H3A          8.8670     0.7090     8.2430 ha         1 YLC       0.051333
     42 H3B         10.0560    -0.5310     7.8230 ha         1 YLC       0.051333
     43 HN6         -5.3060     8.7510    -7.0260 hn         1 YLC       0.073500
     44 HN6A        -3.7760     9.4690    -6.6410 hn         1 YLC       0.073500
     45 HA           1.8680     0.8840    -0.5110 hx         1 YLC       0.137000
     46 HB           1.5850     0.8370     1.9790 hc         1 YLC       0.101000
     47 HBA          1.7300    -0.9250     1.9280 hc         1 YLC       0.101000
     48 H1'         -4.6400     6.9510    -0.3150 h2         1 YLC       0.106000
     49 H2'         -6.5990     5.0450    -1.6820 h1         1 YLC       0.061000
     50 HO2'        -8.0500     6.3830    -0.7370 ho         1 YLC       0.186000
     51 H3'         -6.6070     3.6990     0.2310 h1         1 YLC       0.057000
     52 HO3'        -7.0510     4.7040     2.0590 ho         1 YLC       0.188000
     53 H4'         -4.0750     4.6800     1.2730 h1         1 YLC       0.085000
     54 H5'         -4.6610     2.4950    -0.7660 h1         1 YLC       0.035000
     55 H5'A        -4.8190     2.2870     0.9840 h1         1 YLC       0.035000
     56 HAM          3.7630    -0.7990     3.3730 hc         1 YLC       0.067500
     57 HAMA         3.6190     0.9630     3.4240 hc         1 YLC       0.067500
     58 HAN          3.9720    -0.7120     0.9100 hc         1 YLC       0.049000
     59 HANA         3.8280     1.0510     0.9600 hc         1 YLC       0.049000
     60 HAO          5.8630     1.1760     2.4070 h1         1 YLC       0.063000
     61 HAOA         6.0070    -0.5860     2.3560 h1         1 YLC       0.063000
     62 HNAW         5.4160     0.1740     5.0310 hn         1 YLC       0.098000
     63 HBF          9.1360     1.3090     6.8160 DU         1 YLC       0.098000
     64 HBK          7.9160    -0.5020     5.2440 DU         1 YLC       0.070000
     65 H8          -3.7740     4.9070    -3.3710 h5         1 YLC       0.178000
     66 HN3          1.2350    -1.6460    -1.1640 hn         1 YLC       0.023000
     67 H2          -6.2680    10.8840    -2.6440 h5         1 YLC       0.134000
@<TRIPOS>BOND
     1     1     3 1   
     2     1    15 1   
     3     1    33 1   
     4     2    15 1   
     5     2    38 1   
     6     2    39 1   
     7     2    66 1   
     8     4     5 1   
     9     4    10 1   
    10     5     7 1   
    11     5    67 1   
    12     6    35 1   
    13     6    40 1   
    14     6    41 1   
    15     6    42 1   
    16     6    63 1   
    17     7     8 1   
    18     8     9 1   
    19     8    14 1   
    20     9    10 1   
    21     9    12 1   
    22    10    11 1   
    23    11    43 1   
    24    11    44 1   
    25    12    13 1   
    26    13    14 1   
    27    13    65 1   
    28    14    17 1   
    29    15    16 1   
    30    15    45 1   
    31    16    30 1   
    32    16    46 1   
    33    16    47 1   
    34    17    18 1   
    35    17    23 1   
    36    17    48 1   
    37    18    19 1   
    38    18    20 1   
    39    18    49 1   
    40    19    50 1   
    41    20    21 1   
    42    20    22 1   
    43    20    51 1   
    44    21    52 1   
    45    22    23 1   
    46    22    24 1   
    47    22    53 1   
    48    24    25 1   
    49    24    54 1   
    50    24    55 1   
    51    25    37 1   
    52    26    34 1   
    53    27    37 1   
    54    28    37 1   
    55    29    30 1   
    56    29    31 1   
    57    29    56 1   
    58    29    57 1   
    59    30    58 1   
    60    30    59 1   
    61    31    32 1   
    62    31    60 1   
    63    31    61 1   
    64    32    34 1   
    65    32    62 1   
    66    33    37 1   
    67    34    36 1   
    68    34    64 1   
    69    35    36 1   
    70    35    63 1   
    71    36    64 1   
@<TRIPOS>SUBSTRUCTURE
     1 YLC         1 TEMP              0 ****  ****    0 ROOT
