@<TRIPOS>MOLECULE
molecule
   67    69     1     0     0
SMALL
bcc


@<TRIPOS>ATOM
      1 C            0.0000     0.0000     0.0000 c          1 YLC       0.679100
      2 N            1.9960    -1.2000    -0.6920 nz         1 YLC      -0.800600
      3 O           -0.6040    -1.0300    -0.1820 o          1 YLC      -0.481000
      4 N1          -5.5130    10.0560    -4.3880 nb         1 YLC      -0.840000
      5 C2          -5.8170    10.0130    -3.1030 ca         1 YLC       0.733900
      6 C3           9.6790     0.4530     7.5740 c3         1 YLC      -0.074900
      7 N3          -5.5910     8.9500    -2.3590 nb         1 YLC      -0.778000
      8 C4          -5.0390     7.8620    -2.8830 ca         1 YLC       0.478800
      9 C5          -4.6980     7.8570    -4.2470 ca         1 YLC      -0.212200
     10 C6          -4.9590     9.0150    -4.9990 ca         1 YLC       0.784200
     11 N6          -4.6450     9.0690    -6.3460 nv         1 YLC      -0.988500
     12 N7          -4.1600     6.6440    -4.5190 nc         1 YLC      -0.601100
     13 C8          -4.1490     5.9210    -3.4370 cd         1 YLC       0.435700
     14 N9          -4.6810     6.6280    -2.4010 na         1 YLC      -0.249000
     15 CA           1.5070     0.0000     0.0000 c3         1 YLC       0.032500
     16 CB           2.0170     0.0000     1.4430 c3         1 YLC      -0.101400
     17 C1'         -4.8410     6.1560    -1.0220 c3         1 YLC       0.259800
     18 C2'         -6.2640     5.5840    -0.8040 c3         1 YLC       0.092100
     19 O2'         -7.1830     6.6200    -0.4510 oh         1 YLC      -0.560800
     20 C3'         -6.0450     4.6130     0.3820 c3         1 YLC       0.085100
     21 O3'         -6.4130     5.2370     1.6140 oh         1 YLC      -0.575800
     22 C4'         -4.5320     4.3230     0.3580 c3         1 YLC       0.117100
     23 O4'         -3.9810     5.0260    -0.7680 os         1 YLC      -0.402600
     24 C5'         -4.2940     2.8200     0.2010 c3         1 YLC       0.229400
     25 O5'         -2.8940     2.5480     0.2950 os         1 YLC      -0.594200
     26 OAD          8.1710     0.4450     3.5980 o          1 YLC      -0.617100
     27 OAF         -2.7250     0.4470    -1.0950 o          1 YLC      -0.764000
     28 OAI         -2.7880     0.1700     1.4130 o          1 YLC      -0.764000
     29 CAM          4.0510     0.1260     2.8890 c3         1 YLC      -0.097400
     30 CAN          3.5410     0.1250     1.4450 c3         1 YLC      -0.094400
     31 CAO          5.5750     0.2510     2.8910 c3         1 YLC       0.116000
     32 NAW          6.0630     0.2520     4.2720 ns         1 YLC      -0.588900
     33 OAY         -0.6710     1.1460     0.1960 os         1 YLC      -0.497500
     34 CBA          7.3850     0.3530     4.5200 c          1 YLC       0.670300
     35 CBF          9.1770     0.4540     6.1520 c2         1 YLC      -0.071200
     36 CBK          7.8740     0.3530     5.9070 ce         1 YLC      -0.271200
     37 PBN         -2.2790     1.0650     0.1740 p5         1 YLC       1.295800
     38 HN           2.9610    -1.0780    -0.9290 hn         1 YLC       0.458467
     39 HNA          1.4630    -1.3440    -1.5260 hn         1 YLC       0.458467
     40 H3          10.7620     0.4750     7.5750 hc         1 YLC       0.051033
     41 H3A          9.3350    -0.4420     8.0780 hc         1 YLC       0.051033
     42 H3B          9.3000     1.3270     8.0910 hc         1 YLC       0.051033
     43 HN6         -4.8350     9.9000    -6.8710 hn         1 YLC       0.447800
     44 HN6A        -4.2280     8.2780    -6.7950 hn         1 YLC       0.447800
     45 HA           1.8680     0.8840    -0.5110 hx         1 YLC       0.129700
     46 HB           1.5850     0.8370     1.9790 hc         1 YLC       0.099700
     47 HBA          1.7300    -0.9260     1.9280 hc         1 YLC       0.099700
     48 H1'         -4.6400     6.9510    -0.3150 h2         1 YLC       0.109700
     49 H2'         -6.5990     5.0450    -1.6820 h1         1 YLC       0.058700
     50 HO2'        -8.0490     6.3850    -0.7420 ho         1 YLC       0.403000
     51 H3'         -6.6070     3.6990     0.2310 h1         1 YLC       0.052700
     52 HO3'        -7.0380     4.6950     2.0670 ho         1 YLC       0.405000
     53 H4'         -4.0750     4.6800     1.2730 h1         1 YLC       0.085700
     54 H5'         -4.8190     2.2870     0.9840 h1         1 YLC       0.046700
     55 H5'A        -4.6610     2.4950    -0.7660 h1         1 YLC       0.046700
     56 HAM          3.6190     0.9630     3.4240 hc         1 YLC       0.060200
     57 HAMA         3.7630    -0.7990     3.3730 hc         1 YLC       0.060200
     58 HAN          3.9730    -0.7120     0.9100 hc         1 YLC       0.039200
     59 HANA         3.8270     1.0510     0.9610 hc         1 YLC       0.039200
     60 HAO          6.0070    -0.5860     2.3560 h1         1 YLC       0.052200
     61 HAOA         5.8630     1.1770     2.4070 h1         1 YLC       0.052200
     62 HNAW         5.4150     0.1820     5.0310 hn         1 YLC       0.317500
     63 HBF          9.8780     0.5360     5.3300 ha         1 YLC       0.153000
     64 HBK          7.1730     0.2710     6.7290 ha         1 YLC       0.128000
     65 H8          -3.7740     4.9070    -3.3710 h5         1 YLC       0.094800
     66 HN3          1.9030    -1.9930    -0.0890 hn         1 YLC       0.458467
     67 H2          -6.2680    10.8840    -2.6440 h5         1 YLC       0.059100
@<TRIPOS>BOND
     1     1     3 2
     2     1    15 1
     3     1    33 1
     4     2    15 1
     5     4     5 ar
     6     4    10 ar
     7     5     7 ar
     8     6    35 1
     9     7     8 ar
    10     8     9 ar
    11     8    14 1
    12     9    10 ar
    13     9    12 1
    14    10    11 1
    15    12    13 2
    16    13    14 1
    17    14    17 1
    18    15    16 1
    19    16    30 1
    20    17    18 1
    21    17    23 1
    22    18    19 1
    23    18    20 1
    24    20    21 1
    25    20    22 1
    26    22    23 1
    27    22    24 1
    28    24    25 1
    29    25    37 1
    30    26    34 2
    31    27    37 1
    32    28    37 1
    33    29    30 1
    34    29    31 1
    35    31    32 1
    36    32    34 1
    37    33    37 1
    38    34    36 1
    39    35    36 2
    40     2    38 1
    41     2    39 1
    42     5    67 1
    43     6    40 1
    44     6    41 1
    45     6    42 1
    46    11    43 1
    47    11    44 1
    48    13    65 1
    49    15    45 1
    50    16    46 1
    51    16    47 1
    52    17    48 1
    53    18    49 1
    54    19    50 1
    55    20    51 1
    56    21    52 1
    57    22    53 1
    58    24    54 1
    59    24    55 1
    60    29    56 1
    61    29    57 1
    62    30    58 1
    63    30    59 1
    64    31    60 1
    65    31    61 1
    66    32    62 1
    67    35    63 1
    68    36    64 1
    69    66     2 1
@<TRIPOS>SUBSTRUCTURE
     1 YLC         1 TEMP              0 ****  ****    0 ROOT
