@<TRIPOS>MOLECULE
YLG
   24    25     1     0     0
SMALL
bcc


@<TRIPOS>ATOM
      1 C4           0.0000     0.0000     0.0000 c3         1 YLG       0.035900
      2 C14          1.5070     0.0000     0.0000 ca         1 YLG      -0.069300
      3 C5           2.2300     0.0000     1.1750 ca         1 YLG      -0.078300
      4 C6           3.6160     0.0060     1.1290 ca         1 YLG      -0.103000
      5 C11          4.2750     0.0080    -0.0850 ca         1 YLG      -0.105000
      6 C8           2.2830     0.9570     3.4580 c3         1 YLG       0.003900
      7 C10          1.5570    -0.0110     2.5220 c3         1 YLG       0.180800
      8 C12          3.5490     0.0050    -1.2610 ca         1 YLG      -0.101000
      9 C13          2.1690     0.0000    -1.2170 ca         1 YLG      -0.104000
     10 N2           0.1540     0.3950     2.3980 n7         1 YLG      -0.574200
     11 C3          -0.5230    -0.4180     1.3750 c3         1 YLG       0.142800
     12 H41C        -0.3470     1.0040    -0.2130 hc         1 YLG       0.026200
     13 H42C        -0.3470    -0.7160    -0.7360 hc         1 YLG       0.026200
     14 H31C        -0.3080    -1.4660     1.5420 h1         1 YLG       0.006700
     15 H32C        -1.5920    -0.2470     1.4240 h1         1 YLG       0.006700
     16 H13          1.6010    -0.0030    -2.1390 ha         1 YLG       0.104000
     17 H6           4.1860     0.0080     2.0500 ha         1 YLG       0.109000
     18 H10          1.6010    -1.0120     2.9320 h1         1 YLG       0.007700
     19 H11          5.3580     0.0120    -0.1150 ha         1 YLG       0.102000
     20 H12          4.0620     0.0060    -2.2150 ha         1 YLG       0.101000
     21 H81C         3.2180     0.5140     3.7800 hc         1 YLG       0.009033
     22 H82C         2.4840     1.8840     2.9340 hc         1 YLG       0.009033
     23 H83C         1.6620     1.1580     4.3220 hc         1 YLG       0.009033
     24 H2          -0.3070     0.2750     3.2780 hn         1 YLG       0.252800
@<TRIPOS>BOND
     1     1     2 1   
     2     1    11 1   
     3     1    12 1   
     4     1    13 1   
     5     2     3 ar  
     6     2     9 ar  
     7     3     4 ar  
     8     3     7 1   
     9     4     5 ar  
    10     4    17 1   
    11     5     8 ar  
    12     5    19 1   
    13     6     7 1   
    14     6    21 1   
    15     6    22 1   
    16     6    23 1   
    17     7    10 1   
    18     7    18 1   
    19     8     9 ar  
    20     8    20 1   
    21     9    16 1   
    22    10    11 1   
    23    10    24 1   
    24    11    14 1   
    25    11    15 1   
@<TRIPOS>SUBSTRUCTURE
     1 YLG         1 TEMP              0 ****  ****    0 ROOT
