@<TRIPOS>MOLECULE
YLL
   27    27     1     0     0
SMALL
bcc


@<TRIPOS>ATOM
      1 O5          0.0590   -0.2600    0.1120 oh        1 YLL     -0.603300
      2 C7          1.4690   -0.1280    0.0160 c3        1 YLL      0.144100
      3 C5          2.0170   -0.0600    1.4430 c3        1 YLL     -0.131700
      4 C6          1.6280   -1.3300    2.1950 c3        1 YLL      0.124400
      5 O6          2.2960   -1.4280    3.4380 oh        1 YLL     -0.609800
      6 C4          3.5340    0.1470    1.4510 c3        1 YLL      0.144100
      7 O4          4.2370   -0.9770    0.9460 oh        1 YLL     -0.603300
      8 C3          3.9760    1.3470    0.5950 c3        1 YLL      0.095100
      9 O3          3.5470    2.5640    1.1890 oh        1 YLL     -0.610800
     10 C2          3.3680    1.3010   -0.8120 c3        1 YLL      0.120100
     11 O2          3.7040    2.4530   -1.5610 oh        1 YLL     -0.599800
     12 C1          1.8420    1.1530   -0.7460 c3        1 YLL      0.095100
     13 OXT         1.2830    1.0280   -2.0450 oh        1 YLL     -0.610800
     14 H5         -0.2880   -0.1540   -0.7840 ho        1 YLL      0.424000
     15 H7          1.8940   -1.0220   -0.5220 h1        1 YLL      0.050200
     16 HA          1.5560    0.8290    1.9570 hc        1 YLL      0.075700
     17 H6C1        0.5140   -1.3570    2.3310 h1        1 YLL      0.063700
     18 H6C2        1.9510   -2.2440    1.6270 h1        1 YLL      0.063700
     19 H4          3.8480    0.3320    2.5210 h1        1 YLL      0.050200
     20 H6          1.9460   -0.7350    4.0080 ho        1 YLL      0.402000
     21 HB          4.0840   -1.6980    1.5730 ho        1 YLL      0.424000
     22 H3          5.0990    1.3370    0.5050 h1        1 YLL      0.065700
     23 HC          4.0620    2.6820    1.9950 ho        1 YLL      0.418500
     24 H2          3.8200    0.4400   -1.3810 h1        1 YLL      0.105700
     25 HD          3.4780    3.2240   -1.0230 ho        1 YLL      0.418000
     26 HXT         1.7360    1.6730   -2.6070 ho        1 YLL      0.418500
     27 H1          1.3910    2.0510   -0.2380 h1        1 YLL      0.065700
@<TRIPOS>BOND
     1    1    2 1   
     2    1   14 1   
     3    2    3 1   
     4    2   12 1   
     5    2   15 1   
     6    3    4 1   
     7    3    6 1   
     8    3   16 1   
     9    4    5 1   
    10    4   17 1   
    11    4   18 1   
    12    5   20 1   
    13    6    7 1   
    14    6    8 1   
    15    6   19 1   
    16    7   21 1   
    17    8    9 1   
    18    8   10 1   
    19    8   22 1   
    20    9   23 1   
    21   10   11 1   
    22   10   12 1   
    23   10   24 1   
    24   11   25 1   
    25   12   13 1   
    26   12   27 1   
    27   13   26 1   
@<TRIPOS>SUBSTRUCTURE
     1 YLL         1 TEMP              0 ****  ****    0 ROOT
