@<TRIPOS>MOLECULE
molecule
   27    27     1     0     0
SMALL
bcc


@<TRIPOS>ATOM
      1 O5           0.0000     0.0000     0.0000 oh         1 YLL      -0.609300
      2 C7           1.4300     0.0000     0.0000 c3         1 YLL       0.145100
      3 C5           1.9470     0.0000     1.4530 c3         1 YLL      -0.060700
      4 C6           1.5020    -1.2690     2.1880 c3         1 YLL       0.148400
      5 O6           2.0120    -1.2190     3.5050 oh         1 YLL      -0.617800
      6 C4           3.4790     0.1680     1.5050 c3         1 YLL       0.145100
      7 O4           4.1120    -0.9840     0.9550 oh         1 YLL      -0.609300
      8 C3           3.9330     1.4150     0.7380 c3         1 YLL       0.124100
      9 O3           3.4230     2.5800     1.3850 oh         1 YLL      -0.601300
     10 C2           3.4370     1.3850    -0.7120 c3         1 YLL       0.140100
     11 O2           3.8000     2.6010    -1.3670 oh         1 YLL      -0.597800
     12 C1           1.9190     1.2170    -0.7980 c3         1 YLL       0.124100
     13 OXT          1.5470     1.0480    -2.1680 oh         1 YLL      -0.601300
     14 H5          -0.3140    -0.6310    -0.6260 ho         1 YLL       0.407500
     15 H7           1.7820    -0.8990    -0.4920 h1         1 YLL       0.055700
     16 HA           1.5070     0.8510     1.9580 hc         1 YLL       0.088700
     17 H6C1         1.8900    -2.1420     1.6780 h1         1 YLL       0.033200
     18 H6C2         0.4200    -1.3140     2.2160 h1         1 YLL       0.033200
     19 H4           3.7790     0.2730     2.5410 h1         1 YLL       0.055700
     20 H6           1.5340    -1.8210     4.0510 ho         1 YLL       0.405000
     21 HB           4.8820    -1.1910     1.4590 ho         1 YLL       0.407500
     22 H3           5.0150     1.4520     0.7380 h1         1 YLL       0.053700
     23 HC           4.1350     3.0600     1.7750 ho         1 YLL       0.409000
     24 H2           3.9080     0.5540    -1.2230 h1         1 YLL       0.057700
     25 HD           4.4670     2.4250    -2.0100 ho         1 YLL       0.402000
     26 HXT          0.9990     1.7670    -2.4360 ho         1 YLL       0.409000
     27 H1           1.4440     2.1080    -0.4050 h1         1 YLL       0.053700
@<TRIPOS>BOND
     1     1     2 1
     2     1    14 1
     3     2     3 1
     4     2    12 1
     5     2    15 1
     6     3     4 1
     7     3     6 1
     8     3    16 1
     9     4     5 1
    10     4    17 1
    11     4    18 1
    12     5    20 1
    13     6     7 1
    14     6     8 1
    15     6    19 1
    16     7    21 1
    17     8     9 1
    18     8    10 1
    19     8    22 1
    20     9    23 1
    21    10    11 1
    22    10    12 1
    23    10    24 1
    24    11    25 1
    25    12    27 1
    26    12    13 1
    27    13    26 1
@<TRIPOS>SUBSTRUCTURE
     1 YLL         1 TEMP              0 ****  ****    0 ROOT
