@<TRIPOS>MOLECULE
molecule
   53    56     1     0     0
SMALL
bcc


@<TRIPOS>ATOM
      1 C01          0.0000     0.0000     0.0000 c3         1 YLO      -0.043800
      2 C02          1.5060     0.0000     0.0000 ca         1 YLO      -0.118300
      3 C03          2.1970     0.0000     1.1980 ca         1 YLO      -0.090500
      4 C04          3.5780     0.0000     1.2020 ca         1 YLO      -0.184000
      5 C05          4.2730     0.0020     0.0010 ca         1 YLO       0.135100
      6 C06          3.5780     0.0020    -1.2000 ca         1 YLO      -0.184000
      7 C07          2.1970    -0.0050    -1.1980 ca         1 YLO      -0.090500
      8 O08          5.6320     0.0030     0.0010 os         1 YLO      -0.333900
      9 C09          6.2810     0.0040    -1.2720 c3         1 YLO       0.115400
     10 C10          7.7980     0.0050    -1.0710 c3         1 YLO       0.050300
     11 N11          8.4630     0.0050    -2.3760 na         1 YLO      -0.142300
     12 C12          8.8360     1.1210    -3.1080 ca         1 YLO      -0.085200
     13 C13          8.7280     2.4880    -2.8990 ca         1 YLO      -0.127000
     14 C14          9.2110     3.3680    -3.8460 ca         1 YLO      -0.113000
     15 C15          9.8040     2.8940    -5.0070 ca         1 YLO      -0.143000
     16 C16          9.9180     1.5410    -5.2320 ca         1 YLO      -0.072000
     17 C17          9.4350     0.6370    -4.2820 ca         1 YLO       0.100400
     18 N18          9.4040    -0.7200    -4.2170 nc         1 YLO      -0.611100
     19 C19          8.8380    -1.0930    -3.0960 cd         1 YLO       0.448700
     20 S20          8.5930    -2.7650    -2.5930 ss         1 YLO      -0.182300
     21 C21          9.3200    -3.6290    -4.0080 c3         1 YLO       0.000700
     22 C22          9.2190    -5.1390    -3.7890 c3         1 YLO       0.148400
     23 O23          9.7930    -5.8220    -4.9060 os         1 YLO      -0.325900
     24 C24          9.7840    -7.1800    -4.8700 ca         1 YLO       0.142100
     25 C25         10.3260    -7.9060    -5.9210 ca         1 YLO      -0.188500
     26 C26         10.3150    -9.2870    -5.8830 ca         1 YLO      -0.090500
     27 C27          9.7670    -9.9460    -4.7980 ca         1 YLO      -0.166000
     28 C28          9.2260    -9.2240    -3.7490 ca         1 YLO      -0.090500
     29 C29          9.2400    -7.8430    -3.7810 ca         1 YLO      -0.188500
     30 H011        -0.3610     0.2480    -0.9910 hc         1 YLO       0.042367
     31 H012        -0.3610    -0.9820     0.2800 hc         1 YLO       0.042367
     32 H013        -0.3610     0.7340     0.7110 hc         1 YLO       0.042367
     33 H03          1.6530    -0.0010     2.1360 ha         1 YLO       0.134000
     34 H07          1.6540    -0.0050    -2.1350 ha         1 YLO       0.134000
     35 H04          4.1180     0.0010     2.1410 ha         1 YLO       0.140000
     36 H06          4.1190     0.0000    -2.1390 ha         1 YLO       0.140000
     37 H091         5.9900     0.8880    -1.8250 h1         1 YLO       0.050200
     38 H092         5.9910    -0.8810    -1.8260 h1         1 YLO       0.050200
     39 H101         8.0880     0.8900    -0.5170 h1         1 YLO       0.079200
     40 H102         8.0890    -0.8790    -0.5170 h1         1 YLO       0.079200
     41 H13          8.2650     2.8630    -1.9940 ha         1 YLO       0.129000
     42 H14          9.1270     4.4350    -3.6810 ha         1 YLO       0.135000
     43 H15         10.1790     3.5950    -5.7430 ha         1 YLO       0.135000
     44 H16         10.3830     1.1780    -6.1410 ha         1 YLO       0.144000
     45 H211        10.3610    -3.3480    -4.1070 h1         1 YLO       0.095200
     46 H212         8.7850    -3.3580    -4.9100 h1         1 YLO       0.095200
     47 H221         8.1770    -5.4210    -3.6910 h1         1 YLO       0.045200
     48 H222         9.7530    -5.4100    -2.8860 h1         1 YLO       0.045200
     49 H25         10.7550    -7.3900    -6.7710 ha         1 YLO       0.138500
     50 H29          8.8160    -7.2790    -2.9590 ha         1 YLO       0.138500
     51 H26         10.7380    -9.8550    -6.7030 ha         1 YLO       0.132000
     52 H27          9.7570   -11.0290    -4.7700 ha         1 YLO       0.131000
     53 H28          8.7990    -9.7420    -2.8990 ha         1 YLO       0.132000
@<TRIPOS>BOND
     1     1     2 1
     2     2     3 ar
     3     2     7 ar
     4     3     4 ar
     5     4     5 ar
     6     5     6 ar
     7     5     8 1
     8     6     7 ar
     9     8     9 1
    10     9    10 1
    11    10    11 1
    12    11    12 1
    13    11    19 1
    14    12    13 ar
    15    12    17 ar
    16    13    14 ar
    17    14    15 ar
    18    15    16 ar
    19    16    17 ar
    20    17    18 1
    21    18    19 2
    22    19    20 1
    23    20    21 1
    24    21    22 1
    25    22    23 1
    26    23    24 1
    27    24    25 ar
    28    24    29 ar
    29    25    26 ar
    30    26    27 ar
    31    27    28 ar
    32    28    29 ar
    33     1    30 1
    34     1    31 1
    35     1    32 1
    36     3    33 1
    37     7    34 1
    38     4    35 1
    39     6    36 1
    40     9    37 1
    41     9    38 1
    42    10    39 1
    43    10    40 1
    44    13    41 1
    45    14    42 1
    46    15    43 1
    47    16    44 1
    48    21    45 1
    49    21    46 1
    50    22    47 1
    51    22    48 1
    52    25    49 1
    53    29    50 1
    54    26    51 1
    55    27    52 1
    56    28    53 1
@<TRIPOS>SUBSTRUCTURE
     1 YLO         1 TEMP              0 ****  ****    0 ROOT
