@<TRIPOS>MOLECULE
YLO
   53    56     1     0     0
SMALL
bcc


@<TRIPOS>ATOM
      1 C01         0.0130   -0.4140   -0.1350 c3        1 YLO     -0.048800
      2 C02         1.4890   -0.3530   -0.2310 ca        1 YLO     -0.107300
      3 C03         2.2720   -0.4200    0.9310 ca        1 YLO     -0.098000
      4 C04         3.6570   -0.3770    0.8600 ca        1 YLO     -0.173500
      5 C05         4.2760   -0.2640   -0.4000 ca        1 YLO      0.119100
      6 C06         3.5110   -0.1950   -1.5680 ca        1 YLO     -0.173500
      7 C07         2.1200   -0.2400   -1.4720 ca        1 YLO     -0.098000
      8 O08         5.6590   -0.2260   -0.3580 os        1 YLO     -0.333900
      9 C09         6.3140   -0.1400   -1.6270 c3        1 YLO      0.101400
     10 C10         7.8150   -0.1480   -1.2780 c3        1 YLO      0.038300
     11 N11         8.6770    0.0360   -2.4010 na        1 YLO     -0.150300
     12 C12         8.9630    1.2500   -3.0470 ca        1 YLO     -0.071200
     13 C13         8.7040    2.5840   -2.7140 ca        1 YLO     -0.131000
     14 C14         9.1740    3.5610   -3.5810 ca        1 YLO     -0.115000
     15 C15         9.8850    3.2350   -4.7490 ca        1 YLO     -0.149000
     16 C16        10.1550    1.9190   -5.0980 ca        1 YLO     -0.074000
     17 C17         9.6950    0.9010   -4.2520 ca        1 YLO      0.078400
     18 N18         9.8120   -0.4990   -4.3380 nc        1 YLO     -0.582100
     19 C19         9.1850   -0.9880   -3.2450 cd        1 YLO      0.403700
     20 S20         9.0200   -2.6260   -2.8260 ss        1 YLO     -0.133300
     21 C21         9.9660   -3.4730   -4.0630 c3        1 YLO     -0.028300
     22 C22         9.9780   -4.9280   -3.6420 c3        1 YLO      0.138400
     23 O23         9.4110   -5.6590   -4.7360 os        1 YLO     -0.328900
     24 C24         9.3110   -7.0270   -4.5610 ca        1 YLO      0.123100
     25 C25         8.7320   -7.7120   -5.6460 ca        1 YLO     -0.178500
     26 C26         8.5880   -9.0920   -5.5740 ca        1 YLO     -0.097000
     27 C27         9.0100   -9.7920   -4.4400 ca        1 YLO     -0.162000
     28 C28         9.5810   -9.1040   -3.3730 ca        1 YLO     -0.097000
     29 C29         9.7370   -7.7180   -3.4220 ca        1 YLO     -0.178500
     30 H011       -0.3520    0.1710    0.7450 hc        1 YLO      0.043367
     31 H012       -0.4690   -0.0030   -1.0560 hc        1 YLO      0.043367
     32 H013       -0.3200   -1.4760   -0.0100 hc        1 YLO      0.043367
     33 H03         1.7800   -0.5070    1.9120 ha        1 YLO      0.134500
     34 H07         1.5150   -0.1850   -2.3900 ha        1 YLO      0.134500
     35 H04         4.2780   -0.4300    1.7650 ha        1 YLO      0.143500
     36 H06         3.9830   -0.1050   -2.5560 ha        1 YLO      0.143500
     37 H091        6.0200    0.8120   -2.1420 h1        1 YLO      0.054700
     38 H092        6.0370   -1.0210   -2.2620 h1        1 YLO      0.054700
     39 H101        8.0660   -1.1330   -0.7880 h1        1 YLO      0.081700
     40 H102        8.0130    0.6800   -0.5380 h1        1 YLO      0.081700
     41 H13         8.1520    2.8460   -1.8020 ha        1 YLO      0.138000
     42 H14         8.9860    4.6210   -3.3500 ha        1 YLO      0.133000
     43 H15        10.2360    4.0480   -5.4010 ha        1 YLO      0.133000
     44 H16        10.7150    1.6720   -6.0110 ha        1 YLO      0.148000
     45 H211        9.4990   -3.3540   -5.0740 h1        1 YLO      0.102200
     46 H212       11.0030   -3.0660   -4.1230 h1        1 YLO      0.102200
     47 H221       11.0260   -5.2860   -3.4590 h1        1 YLO      0.053700
     48 H222        9.3590   -5.1000   -2.7170 h1        1 YLO      0.053700
     49 H25         8.4050   -7.1470   -6.5300 ha        1 YLO      0.143000
     50 H29        10.1900   -7.1930   -2.5710 ha        1 YLO      0.143000
     51 H26         8.1360   -9.6360   -6.4170 ha        1 YLO      0.133500
     52 H27         8.8910  -10.8830   -4.3930 ha        1 YLO      0.134000
     53 H28         9.9140   -9.6540   -2.4790 ha        1 YLO      0.133500
@<TRIPOS>BOND
     1    1    2 1   
     2    1   30 1   
     3    1   31 1   
     4    1   32 1   
     5    2    3 ar  
     6    2    7 ar  
     7    3    4 ar  
     8    3   33 1   
     9    4    5 ar  
    10    4   35 1   
    11    5    6 ar  
    12    5    8 1   
    13    6    7 ar  
    14    6   36 1   
    15    7   34 1   
    16    8    9 1   
    17    9   10 1   
    18    9   37 1   
    19    9   38 1   
    20   10   11 1   
    21   10   39 1   
    22   10   40 1   
    23   11   12 1   
    24   11   19 1   
    25   12   13 ar  
    26   12   17 ar  
    27   13   14 ar  
    28   13   41 1   
    29   14   15 ar  
    30   14   42 1   
    31   15   16 ar  
    32   15   43 1   
    33   16   17 ar  
    34   16   44 1   
    35   17   18 1   
    36   18   19 2   
    37   19   20 1   
    38   20   21 1   
    39   21   22 1   
    40   21   45 1   
    41   21   46 1   
    42   22   23 1   
    43   22   47 1   
    44   22   48 1   
    45   23   24 1   
    46   24   25 ar  
    47   24   29 ar  
    48   25   26 ar  
    49   25   49 1   
    50   26   27 ar  
    51   26   51 1   
    52   27   28 ar  
    53   27   52 1   
    54   28   29 ar  
    55   28   53 1   
    56   29   50 1   
@<TRIPOS>SUBSTRUCTURE
     1 YLO         1 TEMP              0 ****  ****    0 ROOT
