@<TRIPOS>MOLECULE
YLP
   66    68     1     0     0
SMALL
bcc


@<TRIPOS>ATOM
      1 C            0.0000     0.0000     0.0000 c          1 YLP       0.761100
      2 N            1.9970     1.2000    -0.6930 nz         1 YLP       0.058400
      3 O           -0.6030     1.0300    -0.1820 o          1 YLP      -0.543000
      4 N1          -5.5140    -7.9490     7.5600 nb         1 YLP      -0.658000
      5 C2          -5.8170    -8.3480     6.3380 ca         1 YLP       0.625900
      6 N3          -5.5910    -7.6050     5.2760 nb         1 YLP      -0.597000
      7 C4          -5.0390    -6.4010     5.3970 ca         1 YLP       0.229800
      8 C5          -4.6980    -5.9320     6.6760 ca         1 YLP      -0.186200
      9 C6          -4.9600    -6.7620     7.7790 ca         1 YLP       0.589200
     10 N6          -4.6460    -6.3530     9.0640 nv         1 YLP      -0.644500
     11 N7          -4.1610    -4.6980     6.5180 nc         1 YLP      -0.511100
     12 C8          -4.1490    -4.3890     5.2540 cd         1 YLP       0.278700
     13 N9          -4.6810    -5.4080     4.5210 na         1 YLP       0.209000
     14 CA           1.5080     0.0000     0.0000 c3         1 YLP      -0.169500
     15 CB           2.0180     0.0000     1.4430 c3         1 YLP      -0.027400
     16 C1'         -4.8400    -5.4360     3.0650 c3         1 YLP       0.147800
     17 C2'         -6.2640    -4.9740     2.6620 c3         1 YLP       0.125100
     18 O2'         -7.1810    -6.0690     2.6860 oh         1 YLP      -0.544800
     19 C3'         -6.0440    -4.4680     1.2160 c3         1 YLP       0.127100
     20 O3'         -6.4120    -5.4760     0.2720 oh         1 YLP      -0.557800
     21 C4'         -4.5300    -4.1860     1.1410 c3         1 YLP       0.142100
     22 O4'         -3.9790    -4.4610     2.4400 os         1 YLP      -0.386600
     23 C5'         -4.2920    -2.7200     0.7750 c3         1 YLP       0.314400
     24 O5'         -2.8920    -2.4950     0.5930 os         1 YLP      -0.503200
     25 OAD          8.1700    -0.4430     3.5980 o          1 YLP      -0.643100
     26 OAF         -2.7860    -0.6450    -1.2710 o          1 YLP      -0.611000
     27 OAI         -2.7240    -0.0470     1.1810 o          1 YLP      -0.611000
     28 CAM          4.0520    -0.1250     2.8870 c3         1 YLP      -0.035400
     29 CAN          3.5420    -0.1260     1.4450 c3         1 YLP      -0.034400
     30 CAO          5.5780    -0.2500     2.8900 c3         1 YLP       0.055000
     31 NAW          6.0660    -0.2500     4.2700 ns         1 YLP      -0.210900
     32 OAY         -0.6710    -1.1440     0.2080 os         1 YLP      -0.413500
     33 CBA          7.3870    -0.3510     4.5190 c          1 YLP       0.574100
     34 CBF          9.4130    -0.4770     5.9410 c3         1 YLP       0.021900
     35 CBK          7.8880    -0.3510     5.9390 c3         1 YLP      -0.094400
     36 PBN         -2.2780    -1.0600     0.1990 p5         1 YLP       0.909800
     37 HN           2.7010     0.9390    -1.3550 hn         1 YLP       0.227800
     38 HNA          2.3870     1.8350    -0.0250 hn         1 YLP       0.227800
     39 HN6         -5.3090    -5.8240     9.5960 hn         1 YLP       0.278800
     40 HN6A        -3.7430    -6.5530     9.4460 hn         1 YLP       0.278800
     41 HA           1.8690    -0.8840    -0.5110 hx         1 YLP       0.098700
     42 HB           1.5860    -0.8370     1.9790 hc         1 YLP       0.061200
     43 HBA          1.7310     0.9260     1.9270 hc         1 YLP       0.061200
     44 H1'         -4.6390    -6.4260     2.6730 h2         1 YLP       0.066700
     45 H2'         -6.5990    -4.1670     3.3020 h1         1 YLP       0.021700
     46 HO2'        -8.0550    -5.7440     2.8300 ho         1 YLP       0.388000
     47 H3'         -6.6060    -3.5580     1.0450 h1         1 YLP       0.017700
     48 HO3'        -7.0700    -5.1360    -0.3110 ho         1 YLP       0.389000
     49 H4'         -4.0730    -4.8350     0.4040 h1         1 YLP       0.045700
     50 H5'         -4.6590    -2.0840     1.5710 h1         1 YLP      -0.004300
     51 H5'A        -4.8170    -2.4870    -0.1440 h1         1 YLP      -0.004300
     52 HAM          3.7650     0.8000     3.3710 hc         1 YLP       0.027700
     53 HAMA         3.6210    -0.9620     3.4220 hc         1 YLP       0.027700
     54 HAN          3.8290    -1.0510     0.9610 hc         1 YLP       0.009700
     55 HANA         3.9740     0.7110     0.9090 hc         1 YLP       0.009700
     56 HAO          5.8650    -1.1760     2.4060 h1         1 YLP       0.024200
     57 HAOA         6.0090     0.5870     2.3540 h1         1 YLP       0.024200
     58 HNAW         5.4180    -0.1720     5.0290 hn         1 YLP       0.177500
     59 HBF          9.8450     0.3600     5.4050 hc         1 YLP       0.010033
     60 HBFA         9.7750    -0.4760     6.9620 hc         1 YLP       0.010033
     61 HBFB         9.7000    -1.4020     5.4570 hc         1 YLP       0.010033
     62 HBK          7.6010     0.5740     6.4240 hc         1 YLP       0.025700
     63 HBKA         7.4560    -1.1880     6.4750 hc         1 YLP       0.025700
     64 H8          -3.7720    -3.4600     4.8450 h5         1 YLP       0.047800
     65 HN3          1.2360     1.6440    -1.1680 hn         1 YLP       0.227800
     66 H2          -6.2680    -9.3240     6.2050 h5         1 YLP      -0.002900
@<TRIPOS>BOND
     1     1     3 2   
     2     1    14 1   
     3     1    32 1   
     4     2    14 1   
     5     2    37 1   
     6     2    38 1   
     7     2    65 1   
     8     4     5 ar  
     9     4     9 ar  
    10     5     6 ar  
    11     5    66 1   
    12     6     7 ar  
    13     7     8 ar  
    14     7    13 1   
    15     8     9 ar  
    16     8    11 1   
    17     9    10 1   
    18    10    39 1   
    19    10    40 1   
    20    11    12 2   
    21    12    13 1   
    22    12    64 1   
    23    13    16 1   
    24    14    15 1   
    25    14    41 1   
    26    15    29 1   
    27    15    42 1   
    28    15    43 1   
    29    16    17 1   
    30    16    22 1   
    31    16    44 1   
    32    17    18 1   
    33    17    19 1   
    34    17    45 1   
    35    18    46 1   
    36    19    20 1   
    37    19    21 1   
    38    19    47 1   
    39    20    48 1   
    40    21    22 1   
    41    21    23 1   
    42    21    49 1   
    43    23    24 1   
    44    23    50 1   
    45    23    51 1   
    46    24    36 1   
    47    25    33 2   
    48    26    36 1   
    49    27    36 1   
    50    28    29 1   
    51    28    30 1   
    52    28    52 1   
    53    28    53 1   
    54    29    54 1   
    55    29    55 1   
    56    30    31 1   
    57    30    56 1   
    58    30    57 1   
    59    31    33 1   
    60    31    58 1   
    61    32    36 1   
    62    33    35 1   
    63    34    35 1   
    64    34    59 1   
    65    34    60 1   
    66    34    61 1   
    67    35    62 1   
    68    35    63 1   
@<TRIPOS>SUBSTRUCTURE
     1 YLP         1 TEMP              0 ****  ****    0 ROOT
