@<TRIPOS>MOLECULE
YLQ
   44    46     1     0     0
SMALL
bcc


@<TRIPOS>ATOM
      1 C01         0.0280    0.1300    0.0630 c3        1 YLQ     -0.043800
      2 C02         1.5030    0.0920   -0.0580 ca        1 YLQ     -0.119300
      3 C03         2.2950   -0.2170    1.0570 ca        1 YLQ     -0.098000
      4 C04         3.6780   -0.2680    0.9560 ca        1 YLQ     -0.177000
      5 C05         4.2880   -0.0040   -0.2850 ca        1 YLQ      0.130100
      6 O06         5.6660   -0.0850   -0.2790 os        1 YLQ     -0.335900
      7 C07         6.3130    0.2030   -1.5250 c3        1 YLQ      0.095400
      8 C08         7.8190    0.1230   -1.2030 c3        1 YLQ      0.045300
      9 N09         8.6590   -0.0240   -2.3460 na        1 YLQ     -0.168300
     10 C10         9.0490    1.0240   -3.2370 cc        1 YLQ      0.434700
     11 S11         8.8060    2.6400   -2.8060 ss        1 YLQ     -0.207300
     12 C12         9.3770    3.6470   -4.1710 c3        1 YLQ      0.047700
     13 C13         9.2720    5.0380   -3.6250 c3        1 YLQ     -0.218400
     14 C14         9.0810    6.0770   -4.7640 c         1 YLQ      0.922600
     15 O15         8.3350    5.7660   -5.7330 o         1 YLQ     -0.829300
     16 O16         9.6740    7.1800   -4.6270 o         1 YLQ     -0.829300
     17 N17         9.6290    0.5500   -4.3620 nd        1 YLQ     -0.590100
     18 C18         9.5930   -0.8530   -4.2570 ca        1 YLQ      0.093400
     19 C19        10.0520   -1.8540   -5.1200 ca        1 YLQ     -0.086000
     20 C20         9.8770   -3.1810   -4.7450 ca        1 YLQ     -0.156000
     21 C21         9.2650   -3.5330   -3.5340 ca        1 YLQ     -0.136000
     22 C22         8.8000   -2.5700   -2.6440 ca        1 YLQ     -0.134000
     23 C23         8.9600   -1.2300   -3.0020 ca        1 YLQ     -0.080200
     24 C24         3.5120    0.3070   -1.4080 ca        1 YLQ     -0.177000
     25 C25         2.1240    0.3540   -1.2830 ca        1 YLQ     -0.098000
     26 H011       -0.2790    0.5300    1.0610 hc        1 YLQ      0.038033
     27 H012       -0.4240    0.7760   -0.7300 hc        1 YLQ      0.038033
     28 H013       -0.3930   -0.9020   -0.0440 hc        1 YLQ      0.038033
     29 H03         1.8130   -0.4190    2.0250 ha        1 YLQ      0.129500
     30 H25         1.5130    0.6040   -2.1630 ha        1 YLQ      0.129500
     31 H04         4.3050   -0.5050    1.8260 ha        1 YLQ      0.146000
     32 H24         3.9770    0.5210   -2.3810 ha        1 YLQ      0.146000
     33 H071        6.0070   -0.5610   -2.2870 h1        1 YLQ      0.059700
     34 H072        6.0340    1.2310   -1.8760 h1        1 YLQ      0.059700
     35 H081        7.9920   -0.7560   -0.5170 h1        1 YLQ      0.077200
     36 H082        8.1170    1.0680   -0.6620 h1        1 YLQ      0.077200
     37 H121        8.7080    3.5180   -5.0590 h1        1 YLQ      0.090200
     38 H122       10.4160    3.3780   -4.4600 h1        1 YLQ      0.090200
     39 H131        8.3790    5.1350   -2.9520 hc        1 YLQ      0.041700
     40 H132       10.1830    5.3090   -3.0370 hc        1 YLQ      0.041700
     41 H19        10.5360   -1.5880   -6.0700 ha        1 YLQ      0.143000
     42 H20        10.2290   -3.9790   -5.4140 ha        1 YLQ      0.120000
     43 H21         9.1490   -4.5960   -3.2800 ha        1 YLQ      0.119000
     44 H22         8.3240   -2.8530   -1.6970 ha        1 YLQ      0.129000
@<TRIPOS>BOND
     1    1    2 1   
     2    1   26 1   
     3    1   27 1   
     4    1   28 1   
     5    2    3 ar  
     6    2   25 ar  
     7    3    4 ar  
     8    3   29 1   
     9    4    5 ar  
    10    4   31 1   
    11    5    6 1   
    12    5   24 ar  
    13    6    7 1   
    14    7    8 1   
    15    7   33 1   
    16    7   34 1   
    17    8    9 1   
    18    8   35 1   
    19    8   36 1   
    20    9   10 1   
    21    9   23 1   
    22   10   11 1   
    23   10   17 2   
    24   11   12 1   
    25   12   13 1   
    26   12   37 1   
    27   12   38 1   
    28   13   14 1   
    29   13   39 1   
    30   13   40 1   
    31   14   15 1   
    32   14   16 1   
    33   17   18 1   
    34   18   19 ar  
    35   18   23 ar  
    36   19   20 ar  
    37   19   41 1   
    38   20   21 ar  
    39   20   42 1   
    40   21   22 ar  
    41   21   43 1   
    42   22   23 ar  
    43   22   44 1   
    44   24   25 ar  
    45   24   32 1   
    46   25   30 1   
@<TRIPOS>SUBSTRUCTURE
     1 YLQ         1 TEMP              0 ****  ****    0 ROOT
