@<TRIPOS>MOLECULE
molecule
   44    46     1     0     0
SMALL
bcc


@<TRIPOS>ATOM
      1 C01          0.0000     0.0000     0.0000 c3         1 YLQ      -0.040800
      2 C02          1.5070     0.0000     0.0000 ca         1 YLQ      -0.126300
      3 C03          2.1980     0.0000     1.1980 ca         1 YLQ      -0.092000
      4 C04          3.5790     0.0010     1.2000 ca         1 YLQ      -0.185000
      5 C05          4.2740     0.0000    -0.0010 ca         1 YLQ       0.145100
      6 O06          5.6330     0.0010    -0.0000 os         1 YLQ      -0.333900
      7 C07          6.2810     0.0000    -1.2740 c3         1 YLQ       0.111400
      8 C08          7.7980    -0.0000    -1.0740 c3         1 YLQ       0.056300
      9 N09          8.4630     0.0000    -2.3790 na         1 YLQ      -0.156300
     10 C10          8.8320     1.1000    -3.1010 cc         1 YLQ       0.473700
     11 S11          8.5780     2.7710    -2.6020 ss         1 YLQ      -0.261300
     12 C12          9.3000     3.6350    -4.0190 c3         1 YLQ       0.054700
     13 C13          9.1910     5.1460    -3.8030 c3         1 YLQ      -0.181400
     14 C14          9.7920     5.8660    -4.9830 c          1 YLQ       0.896600
     15 O15         10.2600     5.2350    -5.9020 o          1 YLQ      -0.841300
     16 O16          9.8090     7.2070    -5.0130 o          1 YLQ      -0.841300
     17 N17          9.4020     0.7270    -4.2210 nd         1 YLQ      -0.601100
     18 C18          9.4350    -0.6300    -4.2860 ca         1 YLQ       0.111400
     19 C19          9.9190    -1.5330    -5.2360 ca         1 YLQ      -0.075000
     20 C20          9.8040    -2.8870    -5.0120 ca         1 YLQ      -0.153000
     21 C21          9.2120    -3.3610    -3.8510 ca         1 YLQ      -0.133000
     22 C22          8.7290    -2.4820    -2.9030 ca         1 YLQ      -0.130000
     23 C23          8.8410    -1.1150    -3.1090 ca         1 YLQ      -0.099200
     24 C24          3.5790     0.0000    -1.2010 ca         1 YLQ      -0.185000
     25 C25          2.1970    -0.0050    -1.1980 ca         1 YLQ      -0.092000
     26 H011        -0.3610     0.5150     0.8820 hc         1 YLQ       0.038367
     27 H012        -0.3610     0.5060    -0.8870 hc         1 YLQ       0.038367
     28 H013        -0.3610    -1.0210     0.0050 hc         1 YLQ       0.038367
     29 H03          1.6550     0.0000     2.1360 ha         1 YLQ       0.130000
     30 H25          1.6540    -0.0050    -2.1360 ha         1 YLQ       0.130000
     31 H04          4.1200     0.0010     2.1390 ha         1 YLQ       0.141500
     32 H24          4.1200    -0.0020    -2.1400 ha         1 YLQ       0.141500
     33 H071         5.9900     0.8850    -1.8280 h1         1 YLQ       0.052700
     34 H072         5.9900    -0.8840    -1.8270 h1         1 YLQ       0.052700
     35 H081         8.0890     0.8840    -0.5200 h1         1 YLQ       0.075200
     36 H082         8.0890    -0.8850    -0.5200 h1         1 YLQ       0.075200
     37 H121         8.7670     3.3600    -4.9200 h1         1 YLQ       0.088200
     38 H122        10.3430     3.3590    -4.1170 h1         1 YLQ       0.088200
     39 H131         9.7240     5.4220    -2.9020 hc         1 YLQ       0.040200
     40 H132         8.1480     5.4220    -3.7050 hc         1 YLQ       0.040200
     41 H19         10.3820    -1.1700    -6.1450 ha         1 YLQ       0.144000
     42 H20         10.1790    -3.5870    -5.7480 ha         1 YLQ       0.123000
     43 H21          9.1280    -4.4280    -3.6870 ha         1 YLQ       0.121000
     44 H22          8.2680    -2.8580    -1.9980 ha         1 YLQ       0.118000
@<TRIPOS>BOND
     1     1     2 1
     2     2     3 ar
     3     2    25 ar
     4     3     4 ar
     5     4     5 ar
     6     5     6 1
     7     5    24 ar
     8     6     7 1
     9     7     8 1
    10     8     9 1
    11     9    10 1
    12     9    23 1
    13    10    11 1
    14    10    17 2
    15    11    12 1
    16    12    13 1
    17    13    14 1
    18    14    15 1
    19    14    16 1
    20    17    18 1
    21    18    19 ar
    22    18    23 ar
    23    19    20 ar
    24    20    21 ar
    25    21    22 ar
    26    22    23 ar
    27    24    25 ar
    28     1    26 1
    29     1    27 1
    30     1    28 1
    31     3    29 1
    32    25    30 1
    33     4    31 1
    34    24    32 1
    35     7    33 1
    36     7    34 1
    37     8    35 1
    38     8    36 1
    39    12    37 1
    40    12    38 1
    41    13    39 1
    42    13    40 1
    43    19    41 1
    44    20    42 1
    45    21    43 1
    46    22    44 1
@<TRIPOS>SUBSTRUCTURE
     1 YLQ         1 TEMP              0 ****  ****    0 ROOT
