@<TRIPOS>MOLECULE
molecule
   60    62     1     0     0
SMALL
bcc


@<TRIPOS>ATOM
      1 CAA          0.0000     0.0000     0.0000 c3         1 YM2      -0.094100
      2 CAM          1.5310     0.0000     0.0000 c3         1 YM2       0.149400
      3 OAV          2.0070     0.0000     1.3470 os         1 YM2      -0.211300
      4 NAT          3.4180     0.0000     1.4590 n2         1 YM2      -0.452200
      5 CAD          3.9740    -0.0000     2.6270 ce         1 YM2       0.439800
      6 CAY          5.4460     0.0000     2.7430 ca         1 YM2      -0.176900
      7 CAJ          6.0480    -0.0000     4.0040 ca         1 YM2      -0.059000
      8 CAL          7.4220    -0.0010     4.1080 ca         1 YM2      -0.199500
      9 CAI          6.2390    -0.0050     1.5930 ca         1 YM2      -0.059000
     10 CAK          7.6120    -0.0050     1.7070 ca         1 YM2      -0.199500
     11 CAZ          8.2080     0.0010     2.9630 ca         1 YM2       0.159100
     12 OAW          9.5610     0.0010     3.0700 os         1 YM2      -0.328900
     13 CAN         10.3080     0.0020     1.8510 c3         1 YM2       0.135400
     14 CAO         11.8050     0.0030     2.1710 c3         1 YM2      -0.076400
     15 CBB         12.6050     0.0030     0.8660 c3         1 YM2      -0.072700
     16 CAB         12.3510     1.3100     0.1140 c3         1 YM2      -0.101100
     17 CAP         14.0970    -0.1220     1.1830 c3         1 YM2      -0.101400
     18 CAQ         14.8860    -0.2470    -0.1200 c3         1 YM2       0.146000
     19 NBC         16.3150    -0.3650     0.1830 n          1 YM2      -0.515800
     20 CAX         16.9710    -1.5150     0.3860 c          1 YM2       0.816500
     21 OAC         16.4330    -2.6040     0.3370 o          1 YM2      -0.673500
     22 CAR         17.2570     0.7570     0.3060 c3         1 YM2       0.072000
     23 CAS         18.6010     0.0770     0.6280 c3         1 YM2       0.070000
     24 NBD         18.2760    -1.3570     0.6470 n          1 YM2      -0.397000
     25 CBA         19.1820    -2.3890     0.8950 ca         1 YM2       0.133600
     26 CAG         18.7690    -3.7200     0.8870 ca         1 YM2      -0.299800
     27 CAE         19.6960    -4.7110     1.1370 ca         1 YM2       0.441700
     28 NAU         20.9560    -4.4110     1.3830 nb         1 YM2      -0.717000
     29 CAF         21.3870    -3.1630     1.3990 ca         1 YM2       0.441700
     30 CAH         20.5240    -2.1150     1.1530 ca         1 YM2      -0.299800
     31 HAA1        -0.3610    -0.8850     0.5110 hc         1 YM2       0.045033
     32 HAA2        -0.3610     0.8840     0.5110 hc         1 YM2       0.045033
     33 HAA3        -0.3610     0.0000    -1.0210 hc         1 YM2       0.045033
     34 HAM1         1.8920     0.8850    -0.5110 h1         1 YM2       0.033200
     35 HAM2         1.8920    -0.8850    -0.5110 h1         1 YM2       0.033200
     36 HAD1         3.3600    -0.0010     3.5190 h4         1 YM2      -0.001200
     37 HAJ          5.4370    -0.0010     4.8980 ha         1 YM2       0.145000
     38 HAI          5.7760    -0.0100     0.6140 ha         1 YM2       0.145000
     39 HAL          7.8900     0.0010     5.0850 ha         1 YM2       0.142500
     40 HAK          8.2290    -0.0060     0.8160 ha         1 YM2       0.142500
     41 HAN1        10.0610     0.8870     1.2770 h1         1 YM2       0.039200
     42 HAN2        10.0620    -0.8830     1.2760 h1         1 YM2       0.039200
     43 HAO1        12.0520    -0.8820     2.7460 hc         1 YM2       0.058700
     44 HAO2        12.0510     0.8870     2.7460 hc         1 YM2       0.058700
     45 HBB         12.2940    -0.8330     0.2520 hc         1 YM2       0.056700
     46 HAB1        11.7540     1.9720     0.7300 hc         1 YM2       0.038367
     47 HAB2        11.8230     1.1000    -0.8080 hc         1 YM2       0.038367
     48 HAB3        13.2980     1.7850    -0.1140 hc         1 YM2       0.038367
     49 HAP1        14.4270     0.7580     1.7220 hc         1 YM2       0.055200
     50 HAP2        14.2640    -1.0020     1.7920 hc         1 YM2       0.055200
     51 HAQ1        14.7180     0.6330    -0.7300 h1         1 YM2       0.062200
     52 HAQ2        14.5570    -1.1270    -0.6590 h1         1 YM2       0.062200
     53 HAR1        17.3530     1.1970    -0.6790 h1         1 YM2       0.066700
     54 HAR2        16.9670     1.3170     1.1860 h1         1 YM2       0.066700
     55 HAS1        19.2510     0.2420    -0.2240 h1         1 YM2       0.072700
     56 HAS2        18.8610     0.3550     1.6420 h1         1 YM2       0.072700
     57 HAG         17.7350    -3.9740     0.6860 ha         1 YM2       0.163500
     58 HAH         20.8830    -1.0930     1.1680 ha         1 YM2       0.163500
     59 HAE         19.3840    -5.7480     1.1330 h4         1 YM2       0.024600
     60 HAF         22.4310    -2.9590     1.6030 h4         1 YM2       0.024600
@<TRIPOS>BOND
     1     1     2 1
     2     2     3 1
     3     3     4 1
     4     4     5 2
     5     5     6 1
     6     6     7 ar
     7     6     9 ar
     8     7     8 ar
     9     8    11 ar
    10     9    10 ar
    11    10    11 ar
    12    11    12 1
    13    12    13 1
    14    13    14 1
    15    14    15 1
    16    15    16 1
    17    15    17 1
    18    17    18 1
    19    18    19 1
    20    19    20 1
    21    19    22 1
    22    20    21 2
    23    20    24 1
    24    22    23 1
    25    23    24 1
    26    24    25 1
    27    25    26 ar
    28    25    30 ar
    29    26    27 ar
    30    27    28 ar
    31    28    29 ar
    32    29    30 ar
    33     1    31 1
    34     1    32 1
    35     1    33 1
    36     2    34 1
    37     2    35 1
    38     5    36 1
    39     7    37 1
    40     9    38 1
    41     8    39 1
    42    10    40 1
    43    13    41 1
    44    13    42 1
    45    14    43 1
    46    14    44 1
    47    15    45 1
    48    16    46 1
    49    16    47 1
    50    16    48 1
    51    17    49 1
    52    17    50 1
    53    18    51 1
    54    18    52 1
    55    22    53 1
    56    22    54 1
    57    23    55 1
    58    23    56 1
    59    26    57 1
    60    30    58 1
    61    27    59 1
    62    29    60 1
@<TRIPOS>SUBSTRUCTURE
     1 YM2         1 TEMP              0 ****  ****    0 ROOT
