@<TRIPOS>MOLECULE
YM2
   60    63     1     0     0
SMALL
bcc


@<TRIPOS>ATOM
      1 CAA          0.0000     0.0000     0.0000 c3         1 YM2      -0.116000
      2 CAM          1.5310     0.0000     0.0000 c3         1 YM2       0.059000
      3 OAV          2.0070     0.0000     1.3470 os         1 YM2      -0.181000
      4 NAT          3.4180     0.0000     1.4590 n2         1 YM2       0.057000
      5 CAD          3.9740    -0.0000     2.6270 c2         1 YM2      -0.388000
      6 CAY          5.4460     0.0000     2.7430 c3         1 YM2      -0.199000
      7 CAJ          6.0480    -0.0000     4.0040 c2         1 YM2      -0.003000
      8 CAL          7.4220    -0.0010     4.1080 c2         1 YM2      -0.202000
      9 CAI          6.2390    -0.0050     1.5930 c2         1 YM2      -0.003000
     10 CAK          7.6120    -0.0050     1.7070 c2         1 YM2      -0.202000
     11 CAZ          8.2080     0.0010     2.9630 c2         1 YM2       0.151000
     12 OAW          9.5610     0.0010     3.0700 os         1 YM2      -0.183000
     13 CAN         10.3080     0.0020     1.8510 c3         1 YM2       0.043000
     14 CAO         11.8050     0.0030     2.1710 c3         1 YM2      -0.110000
     15 CBB         12.6050     0.0030     0.8660 c3         1 YM2      -0.082000
     16 CAB         12.3510     1.3100     0.1140 c3         1 YM2      -0.135000
     17 CAP         14.0970    -0.1220     1.1830 c3         1 YM2      -0.131000
     18 CAQ         14.8860    -0.2470    -0.1200 c3         1 YM2      -0.026000
     19 NBC         16.3150    -0.3650     0.1830 n          1 YM2      -0.050000
     20 CAX         16.9710    -1.5150     0.3860 c2         1 YM2       0.219000
     21 OAC         16.4330    -2.6040     0.3370 o          1 YM2      -0.445000
     22 CAR         17.2570     0.7570     0.3060 c3         1 YM2      -0.083000
     23 CAS         18.6010     0.0770     0.6280 c3         1 YM2      -0.105000
     24 NBD         18.2760    -1.3570     0.6470 n          1 YM2       0.088000
     25 CBA         19.1820    -2.3890     0.8950 c2         1 YM2       0.000000
     26 CAG         18.7690    -3.7200     0.8870 c2         1 YM2      -0.215500
     27 CAE         19.6960    -4.7110     1.1370 c2         1 YM2      -0.032500
     28 NAU         20.9560    -4.4110     1.3830 n2         1 YM2      -0.086000
     29 CAF         21.3870    -3.1630     1.3990 c2         1 YM2      -0.032500
     30 CAH         20.5240    -2.1150     1.1530 c2         1 YM2      -0.215500
     31 HAA1        -0.3610     0.8850     0.5100 hc         1 YM2       0.050000
     32 HAA2        -0.3610    -0.8840     0.5110 hc         1 YM2       0.050000
     33 HAA3        -0.3610    -0.0000    -1.0210 hc         1 YM2       0.050000
     34 HAM1         1.8920    -0.8850    -0.5110 h1         1 YM2       0.034500
     35 HAM2         1.8920     0.8850    -0.5110 h1         1 YM2       0.034500
     36 HAD1         4.5990    -0.8750     2.4930 DU         1 YM2       0.327000
     37 HAJ          5.4370    -0.0010     4.8980 ha         1 YM2       0.122500
     38 HAI          5.7760    -0.0100     0.6140 ha         1 YM2       0.122500
     39 HAL          7.8900     0.0010     5.0850 ha         1 YM2       0.125000
     40 HAK          8.2290    -0.0060     0.8160 ha         1 YM2       0.125000
     41 HAN1        10.0620    -0.8830     1.2760 h1         1 YM2       0.047500
     42 HAN2        10.0610     0.8870     1.2770 h1         1 YM2       0.047500
     43 HAO1        12.0510     0.8870     2.7460 hc         1 YM2       0.068000
     44 HAO2        12.0520    -0.8820     2.7460 hc         1 YM2       0.068000
     45 HBB         12.2940    -0.8330     0.2520 hc         1 YM2       0.073000
     46 HAB1        13.2980     1.7850    -0.1150 hc         1 YM2       0.049333
     47 HAB2        11.8220     1.1000    -0.8070 hc         1 YM2       0.049333
     48 HAB3        11.7550     1.9720     0.7300 hc         1 YM2       0.049333
     49 HAP1        14.4270     0.7580     1.7220 hc         1 YM2       0.067000
     50 HAP2        14.2640    -1.0020     1.7920 hc         1 YM2       0.067000
     51 HAQ1        14.5570    -1.1270    -0.6590 h1         1 YM2       0.073000
     52 HAQ2        14.7180     0.6330    -0.7300 h1         1 YM2       0.073000
     53 HAR1        17.3530     1.1970    -0.6790 h1         1 YM2       0.074500
     54 HAR2        16.9670     1.3170     1.1860 h1         1 YM2       0.074500
     55 HAS1        18.8610     0.3550     1.6420 h1         1 YM2       0.081000
     56 HAS2        19.2510     0.2420    -0.2240 h1         1 YM2       0.081000
     57 HAG         17.7350    -3.9740     0.6860 ha         1 YM2       0.148000
     58 HAH         20.8830    -1.0930     1.1680 ha         1 YM2       0.148000
     59 HAE         19.3840    -5.7480     1.1330 h4         1 YM2       0.115500
     60 HAF         22.4310    -2.9590     1.6030 h4         1 YM2       0.115500
@<TRIPOS>BOND
     1     1     2 1   
     2     1    31 1   
     3     1    32 1   
     4     1    33 1   
     5     2     3 1   
     6     2    34 1   
     7     2    35 1   
     8     3     4 1   
     9     4     5 1   
    10     5     6 1   
    11     5    36 1   
    12     6     7 1   
    13     6     9 1   
    14     6    36 1   
    15     7     8 1   
    16     7    37 1   
    17     8    11 1   
    18     8    39 1   
    19     9    10 1   
    20     9    38 1   
    21    10    11 1   
    22    10    40 1   
    23    11    12 1   
    24    12    13 1   
    25    13    14 1   
    26    13    41 1   
    27    13    42 1   
    28    14    15 1   
    29    14    43 1   
    30    14    44 1   
    31    15    16 1   
    32    15    17 1   
    33    15    45 1   
    34    16    46 1   
    35    16    47 1   
    36    16    48 1   
    37    17    18 1   
    38    17    49 1   
    39    17    50 1   
    40    18    19 1   
    41    18    51 1   
    42    18    52 1   
    43    19    20 1   
    44    19    22 1   
    45    20    21 1   
    46    20    24 1   
    47    22    23 1   
    48    22    53 1   
    49    22    54 1   
    50    23    24 1   
    51    23    55 1   
    52    23    56 1   
    53    24    25 1   
    54    25    26 1   
    55    25    30 1   
    56    26    27 1   
    57    26    57 1   
    58    27    28 1   
    59    27    59 1   
    60    28    29 1   
    61    29    30 1   
    62    29    60 1   
    63    30    58 1   
@<TRIPOS>SUBSTRUCTURE
     1 YM2         1 TEMP              0 ****  ****    0 ROOT
