@<TRIPOS>MOLECULE
YM3
   42    44     1     0     0
SMALL
bcc


@<TRIPOS>ATOM
      1 CAC          0.0000     0.0000     0.0000 c3         1 YM3      -0.003100
      2 CAB          1.5300     0.0000     0.0000 c3         1 YM3       0.231400
      3 CAQ          3.3510     0.0000     1.5440 c          1 YM3       0.755700
      4 CAR          3.9140     0.0020     2.9030 ca         1 YM3      -0.293900
      5 CAG          3.0740     0.1130     4.0210 ca         1 YM3       0.493200
      6 NAN          3.5560     0.1150     5.2400 nb         1 YM3      -0.571000
      7 CAU          4.8620     0.0130     5.4850 ca         1 YM3       0.296800
      8 NAO          5.5960    -0.0100     6.6360 na         1 YM3       0.364200
      9 NAM          6.9470    -0.1380     6.2940 nc         1 YM3      -0.599100
     10 CAH          7.0680    -0.1940     4.9990 cd         1 YM3       0.423800
     11 CAT          5.7790    -0.1040     4.4250 ca         1 YM3      -0.436200
     12 CAS          5.3010    -0.1160     3.1010 ca         1 YM3       0.167600
     13 NAV          6.1660    -0.2330     2.0330 nh         1 YM3      -0.385000
     14 CAL          7.1080     0.8930     1.9910 c3         1 YM3       0.116800
     15 CAK          6.8860    -1.5150     2.0770 c3         1 YM3       0.100800
     16 CAJ          7.7870    -1.6290     0.8440 c3         1 YM3       0.207400
     17 OAP          8.6760    -0.5100     0.8030 os         1 YM3      -0.414600
     18 CAW          8.0070     0.7540     0.7600 c3         1 YM3       0.178100
     19 CAI          7.1540     0.8370    -0.5080 c3         1 YM3      -0.113200
     20 NAA          8.0180     0.7030    -1.6880 nz         1 YM3       0.093400
     21 O03          2.0140     0.0000     1.3680 os         1 YM3      -0.404900
     22 O05          4.0910     0.0000     0.5800 o          1 YM3      -0.632000
     23 HAC1        -0.3610     0.8890     0.5030 hc         1 YM3       0.017033
     24 HAC2        -0.3610    -0.8800     0.5190 hc         1 YM3       0.017033
     25 HAC3        -0.3610    -0.0090    -1.0210 hc         1 YM3       0.017033
     26 HAB1         1.8920    -0.8850    -0.5110 h1         1 YM3       0.003700
     27 HAB2         1.8920     0.8850    -0.5110 h1         1 YM3       0.003700
     28 HAG          2.0040     0.1990     3.8740 h4         1 YM3       0.004100
     29 HAO          5.2310     0.0550     7.5660 hn         1 YM3       0.171700
     30 HAH          7.9990    -0.2930     4.4540 h4         1 YM3       0.019800
     31 HAL1         7.7190     0.8860     2.8860 h1         1 YM3       0.046200
     32 HAL2         6.5560     1.8240     1.9310 h1         1 YM3       0.046200
     33 HAK1         6.1720    -2.3300     2.0790 h1         1 YM3       0.044200
     34 HAK2         7.4940    -1.5560     2.9730 h1         1 YM3       0.044200
     35 HAW          8.7420     1.5500     0.7590 h1         1 YM3       0.053700
     36 HAJ1         7.1750    -1.6360    -0.0500 h1         1 YM3       0.020700
     37 HAJ2         8.3630    -2.5450     0.9020 h1         1 YM3       0.020700
     38 HAI1         6.4220     0.0380    -0.5040 hx         1 YM3       0.114700
     39 HAI2         6.6460     1.7930    -0.5400 hx         1 YM3       0.114700
     40 HAA1         8.2160    -0.2640    -1.8490 hn         1 YM3       0.220800
     41 HAA2         8.8740     1.1980    -1.5330 hn         1 YM3       0.220800
     42 HAA3         7.5520     1.0860    -2.4880 hn         1 YM3       0.220800
@<TRIPOS>BOND
     1     1     2 1   
     2     1    23 1   
     3     1    24 1   
     4     1    25 1   
     5     2    21 1   
     6     2    26 1   
     7     2    27 1   
     8     3     4 1   
     9     3    21 1   
    10     3    22 2   
    11     4     5 ar  
    12     4    12 ar  
    13     5     6 ar  
    14     5    28 1   
    15     6     7 ar  
    16     7     8 1   
    17     7    11 ar  
    18     8     9 1   
    19     8    29 1   
    20     9    10 2   
    21    10    11 1   
    22    10    30 1   
    23    11    12 ar  
    24    12    13 1   
    25    13    14 1   
    26    13    15 1   
    27    14    18 1   
    28    14    31 1   
    29    14    32 1   
    30    15    16 1   
    31    15    33 1   
    32    15    34 1   
    33    16    17 1   
    34    16    36 1   
    35    16    37 1   
    36    17    18 1   
    37    18    19 1   
    38    18    35 1   
    39    19    20 1   
    40    19    38 1   
    41    19    39 1   
    42    20    40 1   
    43    20    41 1   
    44    20    42 1   
@<TRIPOS>SUBSTRUCTURE
     1 YM3         1 TEMP              0 ****  ****    0 ROOT
