@<TRIPOS>MOLECULE
YM4
   67    72     1     0     0
SMALL
bcc


@<TRIPOS>ATOM
      1 C01         0.2610    0.2300   -1.3960 c3        1 YM4     -0.140400
      2 C02         1.5080   -0.2430   -0.8000 cc        1 YM4      0.270000
      3 C03         2.4710    0.2920    0.0310 cd        1 YM4     -0.373600
      4 C04         3.4450   -0.7890    0.2020 cd        1 YM4      0.304600
      5 C05         4.7010   -0.6410    0.9940 c3        1 YM4      0.140500
      6 N06         5.1940   -1.8770    1.5830 n3        1 YM4     -0.709600
      7 C07         6.5640   -1.7770    2.0580 c3        1 YM4      0.161800
      8 C08         6.7340   -1.1020    3.4380 c3        1 YM4      0.152300
      9 N09         5.8410   -1.6720    4.4340 nh        1 YM4     -0.642000
     10 C10         6.0120   -1.1440    5.7450 ca        1 YM4      0.165600
     11 C11         6.5160   -1.9460    6.7820 ca        1 YM4     -0.124200
     12 BR1         6.9890   -3.7330    6.5140 br        1 YM4     -0.054100
     13 C13         6.6820   -1.4010    8.0870 ca        1 YM4      0.405200
     14 N14         6.4010   -0.1540    8.4620 nb        1 YM4     -0.598000
     15 C15         5.9080    0.6580    7.4840 ca        1 YM4      0.540300
     16 N16         5.5180    2.0170    7.5680 nc        1 YM4     -0.622700
     17 C17         5.1010    2.3510    6.3230 cd        1 YM4      0.499400
     18 C18         4.6130    3.6680    5.9170 ca        1 YM4     -0.176900
     19 C19         5.0780    4.8150    6.5740 ca        1 YM4     -0.058500
     20 C20         4.6290    6.0760    6.2060 ca        1 YM4     -0.198500
     21 C21         3.6750    6.2420    5.1690 ca        1 YM4      0.186600
     22 N22         3.1420    7.5070    4.8590 nh        1 YM4     -0.639000
     23 C23         2.4940    7.6360    3.5670 c3        1 YM4      0.160300
     24 C24         1.9370    9.0430    3.2640 c3        1 YM4      0.157800
     25 N25         2.8080   10.1530    3.6000 n3        1 YM4     -0.717600
     26 C26         3.8660   10.3810    2.6420 c3        1 YM4      0.147100
     27 C27         3.2710   10.0220    4.9700 c3        1 YM4      0.157800
     28 C28         3.8860    8.6560    5.3400 c3        1 YM4      0.160300
     29 C29         3.2220    5.0700    4.5100 ca        1 YM4     -0.198500
     30 C30         3.6770    3.8140    4.8870 ca        1 YM4     -0.058500
     31 N31         5.1930    1.2750    5.4060 na        1 YM4     -0.274300
     32 C32         5.7010    0.1880    6.1100 ca        1 YM4     -0.214500
     33 C33         4.4570   -1.7840    4.0050 c3        1 YM4      0.152300
     34 C34         4.3290   -2.4350    2.6100 c3        1 YM4      0.161800
     35 N35         3.0340   -1.8620   -0.5030 nc        1 YM4     -0.325300
     36 O36         1.8960   -1.5730   -1.1010 os        1 YM4     -0.124100
     37 H011        0.3400    0.2230   -2.5130 hc        1 YM4      0.066367
     38 H012        0.0440    1.2710   -1.0520 hc        1 YM4      0.066367
     39 H013       -0.5880   -0.4380   -1.1020 hc        1 YM4      0.066367
     40 H03         2.5260    1.2800    0.4720 ha        1 YM4      0.169000
     41 H051        5.4930   -0.2500    0.2890 h1        1 YM4      0.042700
     42 H052        4.5130    0.1570    1.7750 h1        1 YM4      0.042700
     43 H071        6.9580   -2.8310    2.1180 h1        1 YM4      0.069950
     44 H072        7.1890   -1.2090    1.3160 h1        1 YM4      0.069950
     45 H341        3.2550   -2.3530    2.2880 h1        1 YM4      0.069950
     46 H342        4.5920   -3.5280    2.6930 h1        1 YM4      0.069950
     47 H081        7.7910   -1.2650    3.7870 h1        1 YM4      0.037450
     48 H082        6.5770    0.0110    3.3180 h1        1 YM4      0.037450
     49 H331        3.9410   -0.7790    3.9850 h1        1 YM4      0.037450
     50 H332        3.9170   -2.4320    4.7500 h1        1 YM4      0.037450
     51 H13         7.0800   -2.0460    8.8960 h4        1 YM4      0.040100
     52 H31         4.9600    1.2980    4.4500 hn        1 YM4      0.307700
     53 H19         5.8090    4.7210    7.3940 ha        1 YM4      0.142500
     54 H30         3.2740    2.9320    4.3670 ha        1 YM4      0.142500
     55 H20         5.0330    6.9420    6.7510 ha        1 YM4      0.138500
     56 H29         2.4880    5.1270    3.6930 ha        1 YM4      0.138500
     57 H231        1.6150    6.9300    3.5490 h1        1 YM4      0.044200
     58 H232        3.2000    7.3380    2.7390 h1        1 YM4      0.044200
     59 H281        3.9100    8.6050    6.4660 h1        1 YM4      0.044200
     60 H282        4.9510    8.6230    4.9640 h1        1 YM4      0.044200
     61 H241        0.9840    9.1890    3.8480 h1        1 YM4      0.063700
     62 H242        1.6860    9.0800    2.1680 h1        1 YM4      0.063700
     63 H261        4.4310   11.3030    2.9420 h1        1 YM4      0.034700
     64 H262        4.5930    9.5270    2.5630 h1        1 YM4      0.034700
     65 H263        3.4080   10.5540    1.6330 h1        1 YM4      0.034700
     66 H271        4.0420   10.8120    5.1840 h1        1 YM4      0.063700
     67 H272        2.3800   10.2100    5.6340 h1        1 YM4      0.063700
@<TRIPOS>BOND
     1    1    2 1   
     2    1   37 1   
     3    1   38 1   
     4    1   39 1   
     5    2    3 2   
     6    2   36 1   
     7    3    4 1   
     8    3   40 1   
     9    4    5 1   
    10    4   35 2   
    11    5    6 1   
    12    5   41 1   
    13    5   42 1   
    14    6    7 1   
    15    6   34 1   
    16    7    8 1   
    17    7   43 1   
    18    7   44 1   
    19    8    9 1   
    20    8   47 1   
    21    8   48 1   
    22    9   10 1   
    23    9   33 1   
    24   10   11 ar  
    25   10   32 ar  
    26   11   12 1   
    27   11   13 ar  
    28   13   14 ar  
    29   13   51 1   
    30   14   15 ar  
    31   15   16 1   
    32   15   32 ar  
    33   16   17 2   
    34   17   18 1   
    35   17   31 1   
    36   18   19 ar  
    37   18   30 ar  
    38   19   20 ar  
    39   19   53 1   
    40   20   21 ar  
    41   20   55 1   
    42   21   22 1   
    43   21   29 ar  
    44   22   23 1   
    45   22   28 1   
    46   23   24 1   
    47   23   57 1   
    48   23   58 1   
    49   24   25 1   
    50   24   61 1   
    51   24   62 1   
    52   25   26 1   
    53   25   27 1   
    54   26   63 1   
    55   26   64 1   
    56   26   65 1   
    57   27   28 1   
    58   27   66 1   
    59   27   67 1   
    60   28   59 1   
    61   28   60 1   
    62   29   30 ar  
    63   29   56 1   
    64   30   54 1   
    65   31   32 1   
    66   31   52 1   
    67   33   34 1   
    68   33   49 1   
    69   33   50 1   
    70   34   45 1   
    71   34   46 1   
    72   35   36 1   
@<TRIPOS>SUBSTRUCTURE
     1 YM4         1 TEMP              0 ****  ****    0 ROOT
