@<TRIPOS>MOLECULE
molecule
   47    50     1     0     0
SMALL
bcc


@<TRIPOS>ATOM
      1 N01          0.0000     0.0000     0.0000 nz         1 YM5      -0.805600
      2 C02          1.4680     0.0000     0.0000 c3         1 YM5       0.102800
      3 C03          1.9790     0.0000     1.4430 c3         1 YM5       0.113100
      4 C04          3.5100    -0.0000     1.4440 c3         1 YM5       0.149800
      5 N05          3.9940     0.0770     2.8300 nh         1 YM5      -0.701300
      6 C06          5.3750     0.0250     2.8760 ca         1 YM5       0.655200
      7 N07          6.1110     1.0110     2.3680 nb         1 YM5      -0.800000
      8 C08          7.4300     0.9660     2.4100 ca         1 YM5       0.710900
      9 N09          8.0910    -0.0380     2.9480 nb         1 YM5      -0.737000
     10 C10          7.4400    -1.0710     3.4840 ca         1 YM5       0.497800
     11 N11          7.8330    -2.2290     4.0980 na         1 YM5      -0.263100
     12 C12          6.7410    -2.9640     4.4700 cc         1 YM5      -0.068100
     13 C13          5.6080    -2.3100     4.1100 cd         1 YM5      -0.084400
     14 C14          4.2150    -2.7640     4.3300 ca         1 YM5      -0.015800
     15 C15          3.3090    -1.9430     5.0010 ca         1 YM5      -0.091000
     16 C16          2.0120    -2.3710     5.2030 ca         1 YM5      -0.150000
     17 C17          1.6110    -3.6110     4.7410 ca         1 YM5      -0.114000
     18 C18          2.5040    -4.4300     4.0740 ca         1 YM5      -0.091300
     19 C19          2.0590    -5.7800     3.5740 c3         1 YM5       0.187700
     20 O20          1.5530    -5.6510     2.2440 oh         1 YM5      -0.622800
     21 C21          3.8020    -4.0100     3.8620 ca         1 YM5      -0.101000
     22 C22          6.0340    -1.0620     3.4650 ca         1 YM5      -0.302400
     23 C23          3.4890     1.2890     3.4910 c3         1 YM5       0.125800
     24 C24          1.9580     1.2750     3.4700 c3         1 YM5       0.142400
     25 O25          1.5060     1.1690     2.1170 os         1 YM5      -0.459600
     26 H011        -0.3340     0.8680     0.3700 hn         1 YM5       0.459800
     27 H012        -0.3340    -0.1140    -0.9370 hn         1 YM5       0.459800
     28 H021         1.8290     0.8840    -0.5110 hx         1 YM5       0.117700
     29 H022         1.8290    -0.8850    -0.5110 hx         1 YM5       0.117700
     30 H03          1.6190    -0.8820     1.9590 h1         1 YM5       0.075700
     31 H041         3.8700    -0.9140     0.9860 h1         1 YM5       0.068700
     32 H042         3.8710     0.8560     0.8880 h1         1 YM5       0.068700
     33 H231         3.8350     1.3100     4.5180 h1         1 YM5       0.075200
     34 H232         3.8490     2.1640     2.9640 h1         1 YM5       0.075200
     35 H15          3.6230    -0.9710     5.3630 ha         1 YM5       0.137000
     36 H21          4.5020    -4.6520     3.3390 ha         1 YM5       0.139000
     37 H16          1.3080    -1.7340     5.7250 ha         1 YM5       0.129000
     38 H17          0.5920    -3.9430     4.9020 ha         1 YM5       0.133000
     39 H191         1.2810    -6.1670     4.2210 h1         1 YM5       0.034700
     40 H192         2.9010    -6.4620     3.5750 h1         1 YM5       0.034700
     41 H20          1.2740    -6.4960     1.9310 ho         1 YM5       0.409000
     42 H241         1.5830     2.1940     3.9040 h1         1 YM5       0.072700
     43 H242         1.5970     0.4270     4.0380 h1         1 YM5       0.072700
     44 H11          8.7840    -2.5000     4.2530 hn         1 YM5       0.321700
     45 H08          7.9920     1.7880     1.9850 h5         1 YM5       0.071100
     46 H12          6.7750    -3.9210     4.9750 h4         1 YM5       0.188000
     47 H013        -0.3340    -0.7600     0.5600 hn         1 YM5       0.459800
@<TRIPOS>BOND
     1     1     2 1
     2     2     3 1
     3     3     4 1
     4     3    25 1
     5     4     5 1
     6     5     6 1
     7     5    23 1
     8     6     7 ar
     9     6    22 ar
    10     7     8 ar
    11     8     9 ar
    12     9    10 ar
    13    10    11 1
    14    10    22 ar
    15    11    12 1
    16    12    13 2
    17    13    14 1
    18    13    22 1
    19    14    15 ar
    20    14    21 ar
    21    15    16 ar
    22    16    17 ar
    23    17    18 ar
    24    18    19 1
    25    18    21 ar
    26    19    20 1
    27    23    24 1
    28    24    25 1
    29     1    26 1
    30     1    27 1
    31     2    28 1
    32     2    29 1
    33     3    30 1
    34     4    31 1
    35     4    32 1
    36    23    33 1
    37    23    34 1
    38    15    35 1
    39    21    36 1
    40    16    37 1
    41    17    38 1
    42    19    39 1
    43    19    40 1
    44    20    41 1
    45    24    42 1
    46    24    43 1
    47    11    44 1
    48     8    45 1
    49    12    46 1
    50    47     1 1
@<TRIPOS>SUBSTRUCTURE
     1 YM5         1 TEMP              0 ****  ****    0 ROOT
