@<TRIPOS>MOLECULE
YM5
   47    50     1     0     0
SMALL
bcc


@<TRIPOS>ATOM
      1 N01          0.0000     0.0000     0.0000 nz         1 YM5       0.092400
      2 C02          1.4680     0.0000     0.0000 c3         1 YM5      -0.049200
      3 C03          1.9790     0.0000     1.4430 c3         1 YM5       0.160100
      4 C04          3.5100    -0.0000     1.4440 c3         1 YM5       0.128800
      5 N05          3.9940     0.0770     2.8300 nh         1 YM5      -0.491300
      6 C06          5.3750     0.0250     2.8760 ca         1 YM5       0.542200
      7 N07          6.1110     1.0110     2.3680 nb         1 YM5      -0.685000
      8 C08          7.4300     0.9660     2.4100 ca         1 YM5       0.645900
      9 N09          8.0910    -0.0380     2.9480 nb         1 YM5      -0.598000
     10 C10          7.4400    -1.0710     3.4840 ca         1 YM5       0.254800
     11 N11          7.8330    -2.2290     4.0980 na         1 YM5       0.293900
     12 C12          6.7410    -2.9640     4.4700 cc         1 YM5      -0.245100
     13 C13          5.6080    -2.3100     4.1100 cd         1 YM5      -0.059400
     14 C14          4.2150    -2.7640     4.3300 ca         1 YM5      -0.006800
     15 C15          3.3090    -1.9430     5.0010 ca         1 YM5      -0.079000
     16 C16          2.0120    -2.3710     5.2030 ca         1 YM5      -0.122000
     17 C17          1.6110    -3.6110     4.7410 ca         1 YM5      -0.088000
     18 C18          2.5040    -4.4300     4.0740 ca         1 YM5      -0.108300
     19 C19          2.0590    -5.7800     3.5740 c3         1 YM5       0.285700
     20 O20          1.5530    -5.6510     2.2440 oh         1 YM5      -0.608800
     21 C21          3.8020    -4.0100     3.8620 ca         1 YM5      -0.075000
     22 C22          6.0340    -1.0620     3.4650 ca         1 YM5      -0.305400
     23 C23          3.4890     1.2890     3.4910 c3         1 YM5       0.101800
     24 C24          1.9580     1.2750     3.4700 c3         1 YM5       0.228400
     25 O25          1.5060     1.1690     2.1170 os         1 YM5      -0.449600
     26 H011        -0.3340     0.8680     0.3700 hn         1 YM5       0.224800
     27 H012        -0.3340    -0.1140    -0.9370 hn         1 YM5       0.224800
     28 H021         1.8290     0.8840    -0.5110 hx         1 YM5       0.089700
     29 H022         1.8290    -0.8850    -0.5110 hx         1 YM5       0.089700
     30 H03          1.6190    -0.8820     1.9590 h1         1 YM5       0.043700
     31 H041         3.8700    -0.9140     0.9860 h1         1 YM5       0.038200
     32 H042         3.8710     0.8560     0.8880 h1         1 YM5       0.038200
     33 H231         3.8350     1.3100     4.5180 h1         1 YM5       0.044700
     34 H232         3.8490     2.1640     2.9640 h1         1 YM5       0.044700
     35 H15          3.6230    -0.9710     5.3630 ha         1 YM5       0.112000
     36 H21          4.5020    -4.6520     3.3390 ha         1 YM5       0.113000
     37 H16          1.3080    -1.7340     5.7250 ha         1 YM5       0.103000
     38 H17          0.5920    -3.9430     4.9020 ha         1 YM5       0.107000
     39 H191         1.2810    -6.1670     4.2210 h1         1 YM5      -0.005300
     40 H192         2.9010    -6.4620     3.5750 h1         1 YM5      -0.005300
     41 H20          1.2740    -6.4960     1.9310 ho         1 YM5       0.397000
     42 H241         1.5830     2.1940     3.9040 h1         1 YM5       0.029200
     43 H242         1.5970     0.4270     4.0380 h1         1 YM5       0.029200
     44 H11          8.7840    -2.5000     4.2530 hn         1 YM5       0.130700
     45 H08          7.9920     1.7880     1.9850 h5         1 YM5       0.007100
     46 H12          6.7750    -3.9210     4.9750 h4         1 YM5       0.157000
     47 H013        -0.3340    -0.7600     0.5600 hn         1 YM5       0.224800
@<TRIPOS>BOND
     1     1     2 1   
     2     1    26 1   
     3     1    27 1   
     4     1    47 1   
     5     2     3 1   
     6     2    28 1   
     7     2    29 1   
     8     3     4 1   
     9     3    25 1   
    10     3    30 1   
    11     4     5 1   
    12     4    31 1   
    13     4    32 1   
    14     5     6 1   
    15     5    23 1   
    16     6     7 ar  
    17     6    22 ar  
    18     7     8 ar  
    19     8     9 ar  
    20     8    45 1   
    21     9    10 ar  
    22    10    11 1   
    23    10    22 ar  
    24    11    12 1   
    25    11    44 1   
    26    12    13 2   
    27    12    46 1   
    28    13    14 1   
    29    13    22 1   
    30    14    15 ar  
    31    14    21 ar  
    32    15    16 ar  
    33    15    35 1   
    34    16    17 ar  
    35    16    37 1   
    36    17    18 ar  
    37    17    38 1   
    38    18    19 1   
    39    18    21 ar  
    40    19    20 1   
    41    19    39 1   
    42    19    40 1   
    43    20    41 1   
    44    21    36 1   
    45    23    24 1   
    46    23    33 1   
    47    23    34 1   
    48    24    25 1   
    49    24    42 1   
    50    24    43 1   
@<TRIPOS>SUBSTRUCTURE
     1 YM5         1 TEMP              0 ****  ****    0 ROOT
