@<TRIPOS>MOLECULE
YM6
   38    40     1     0     0
SMALL
bcc


@<TRIPOS>ATOM
      1 N1          0.1840   -0.6710    0.2170 n3        1 YM6     -0.243000
      2 C2          1.5350   -1.0210    0.1960 c1        1 YM6      0.016000
      3 N3          2.3090   -0.9890    1.2900 n2        1 YM6     -0.248000
      4 C4          1.7290   -0.6190    2.4610 c2        1 YM6      0.220000
      5 C5          0.2890   -0.2280    2.5460 c2        1 YM6     -0.249000
      6 C6         -0.4690   -0.2570    1.3740 c2        1 YM6      0.175000
      7 NAA        -7.0420   -1.6680    0.3440 n4        1 YM6     -0.116000
      8 CAB        -0.5450    1.5990    5.7360 c2        1 YM6      0.090000
      9 CAD        -0.9170    0.9160    4.5210 c2        1 YM6     -0.274000
     10 CAE         1.6120    0.7080    5.8770 c1        1 YM6      0.049000
     11 CAG        -6.3780   -0.3190    0.5460 c3        1 YM6      0.014000
     12 CAH        -2.0840    1.5390    1.3480 c3        1 YM6     -0.118000
     13 CAI        -2.7180   -0.6710    0.5370 c3        1 YM6     -0.022000
     14 NAJ         0.6640    1.5630    6.2830 n2        1 YM6     -0.240000
     15 NAM         2.2960   -0.5480    3.7110 n3        1 YM6     -0.254000
     16 OAN        -5.0370   -0.4110    0.1670 os        1 YM6     -0.200000
     17 CAP         1.2900   -0.2050    4.6950 c3        1 YM6     -0.093000
     18 CAQ         0.0410    0.1680    3.9060 c2        1 YM6      0.043000
     19 CAT        -4.1010   -0.8300    1.1270 c2        1 YM6     -0.003000
     20 NAU        -1.8570    0.1090    1.4110 n3        1 YM6     -0.255000
     21 H2         -0.3050   -0.7170   -0.6490 hn        1 YM6      0.248000
     22 HNAA       -6.6730   -2.3510    1.0140 hn        1 YM6      0.260667
     23 HNAB       -8.0540   -1.5800    0.4710 hn        1 YM6      0.260667
     24 HAB        -1.8920    1.1310    4.0660 ha        1 YM6      0.148000
     25 HAD        -1.2950    2.2600    6.2160 h4        1 YM6      0.163000
     26 HAE         1.0440   -1.1520    5.3010 h1        1 YM6      0.176000
     27 HAF        -3.5830   -1.6410    3.0070 ha        1 YM6      0.147500
     28 HAFA       -6.8460   -2.0110   -0.6030 hn        1 YM6      0.260667
     29 HAG        -6.5310   -0.0070    1.6180 hx        1 YM6      0.172500
     30 HAGA       -6.8440    0.4110   -0.1850 hx        1 YM6      0.172500
     31 HAH        -3.1420    1.7360    1.6650 h1        1 YM6      0.095333
     32 HAHA       -1.3840    2.0530    2.0610 h1        1 YM6      0.095333
     33 HAI        -1.9290    1.9600    0.3180 h1        1 YM6      0.095333
     34 HAIA       -2.8150   -0.2090   -0.4910 h1        1 YM6      0.117500
     35 HAT        -2.3030   -1.7150    0.4190 h1        1 YM6      0.117500
     36 HNAM        3.2580   -0.6400    3.9270 hn        1 YM6      0.294000
     37 HAA3       -5.4040   -1.4490    2.7330 ha        1 YM6      0.147500
     38 CAF        -4.3930   -1.3330    2.3270 c2        1 YM6     -0.262000
@<TRIPOS>BOND
     1    1    2 1
     2    1    6 1
     3    1   21 1
     4    2    3 1
     5    3    4 1
     6    4    5 1
     7    4   15 1
     8    5    6 1
     9    5   18 1
    10    6   20 1
    11    7   11 1
    12    7   22 1
    13    7   23 1
    14    7   28 1
    15    8    9 1
    16    8   14 1
    17    8   25 1
    18    9   18 1
    19    9   24 1
    20   10   14 1
    21   10   17 1
    22   11   16 1
    23   11   29 1
    24   11   30 1
    25   12   20 1
    26   12   31 1
    27   12   32 1
    28   12   33 1
    29   13   19 1
    30   13   20 1
    31   13   34 1
    32   13   35 1
    33   15   17 1
    34   15   36 1
    35   16   19 1
    36   17   18 1
    37   17   26 1
    38   19   38 1
    39   27   38 1
    40   37   38 1
@<TRIPOS>SUBSTRUCTURE
     1 YM6         1 TEMP              0 ****  ****    0 ROOT
