@<TRIPOS>MOLECULE
YM7
   41    45     1     0     0
SMALL
bcc


@<TRIPOS>ATOM
      1 CAI          0.0000     0.0000     0.0000 c3         1 YM7      -0.102500
      2 CAG          1.5310     0.0000     0.0000 c3         1 YM7      -0.122000
      3 NAP          2.0210     0.0000     1.3840 n7         1 YM7      -0.101000
      4 CAH          1.5890     1.2060     2.1010 c3         1 YM7      -0.122000
      5 CAJ          0.0600     1.2420     2.1640 c3         1 YM7      -0.102500
      6 CAW         -0.5050     1.2420     0.7410 c3         1 YM7      -0.040000
      7 CAK         -2.0340     1.2160     0.7970 c3         1 YM7      -0.416000
      8 NAQ         -2.5210     2.4600     1.4000 ny         1 YM7       0.206000
      9 C6          -3.8820     2.6660     1.5570 c2         1 YM7      -0.087000
     10 C5          -4.7960     1.6990     1.1470 c2         1 YM7      -0.261000
     11 N1          -4.3360     3.7910     2.1080 n2         1 YM7      -0.137000
     12 C2          -5.6280     3.9950     2.2620 c2         1 YM7       0.017000
     13 N3          -6.5230     3.1070     1.8820 n2         1 YM7      -0.159000
     14 C4          -6.1510     1.9550     1.3270 c2         1 YM7       0.049000
     15 NAR         -7.1020     1.0230     0.9340 nu         1 YM7      -0.069000
     16 CAT         -8.4430     1.2380     1.2170 c3         1 YM7       0.047000
     17 CAE         -9.3860     0.2520     0.9210 c2         1 YM7      -0.188000
     18 NAN        -10.6580     0.4550     1.1880 n2         1 YM7       0.022000
     19 CAS        -11.0480     1.6030     1.7420 c2         1 YM7      -0.075000
     20 CAB        -12.4320     1.8240     2.0340 c1         1 YM7      -0.096000
     21 NAA        -13.5350     1.9830     2.2560 n1         1 YM7      -0.029000
     22 CAD        -10.1050     2.5890     2.0380 c2         1 YM7      -0.023000
     23 NAO         -8.8280     2.3800     1.7740 n2         1 YM7      -0.052000
     24 HAI1        -0.0950     0.1220    -1.0720 hc         1 YM7       0.087250
     25 HAI2        -0.4280    -0.9940     0.0350 hc         1 YM7       0.087250
     26 HAG1         2.1670    -0.6420    -0.5970 h1         1 YM7       0.047500
     27 HAG2         2.1600     0.8390    -0.2730 h1         1 YM7       0.047500
     28 HAW         -0.1720     2.1320     0.2210 hc         1 YM7       0.045000
     29 HAP          3.0120    -0.0280     1.2470 hn         1 YM7       0.043000
     30 HAH1         2.1160     2.0690     1.7120 h1         1 YM7       0.047500
     31 HAH2         2.0120     0.8130     3.0180 h1         1 YM7       0.047500
     32 HAJ1        -0.3870     0.2560     2.2020 hc         1 YM7       0.087250
     33 HAJ2         0.2040     2.1940     2.6620 hc         1 YM7       0.087250
     34 HAK1        -2.5420     2.0530     0.3340 DU         1 YM7       0.125000
     35 HAK2        -2.1960     0.2200     0.4030 hx         1 YM7       0.205000
     36 HAQ         -2.3490     3.4130     1.1500 hn         1 YM7       0.102000
     37 H5          -4.2010     0.8250     0.9120 ha         1 YM7       0.152000
     38 H2          -6.1280     4.9110     2.5530 h5         1 YM7       0.144000
     39 HAR         -7.7710     0.8820     1.6650 DU         1 YM7       0.177000
     40 HAE         -9.3800    -0.7850     0.6050 h4         1 YM7       0.164000
     41 HAD        -10.7550     3.3970     2.3520 h4         1 YM7       0.145000
@<TRIPOS>BOND
     1     1     2 1   
     2     1     6 1   
     3     1    24 1   
     4     1    25 1   
     5     2     3 1   
     6     2    26 1   
     7     2    27 1   
     8     3     4 1   
     9     3    29 1   
    10     4     5 1   
    11     4    30 1   
    12     4    31 1   
    13     5     6 1   
    14     5    32 1   
    15     5    33 1   
    16     6     7 1   
    17     6    28 1   
    18     7     8 1   
    19     7    34 1   
    20     7    35 1   
    21     8     9 1   
    22     8    34 1   
    23     8    36 1   
    24     9    10 1   
    25     9    11 1   
    26    10    14 1   
    27    10    37 1   
    28    11    12 1   
    29    12    13 1   
    30    12    38 1   
    31    13    14 1   
    32    14    15 1   
    33    15    16 1   
    34    15    39 1   
    35    16    17 1   
    36    16    23 1   
    37    16    39 1   
    38    17    18 1   
    39    17    40 1   
    40    18    19 1   
    41    19    20 1   
    42    19    22 1   
    43    20    21 1   
    44    22    23 1   
    45    22    41 1   
@<TRIPOS>SUBSTRUCTURE
     1 YM7         1 TEMP              0 ****  ****    0 ROOT
