@<TRIPOS>MOLECULE
molecule
   41    43     1     0     0
SMALL
bcc


@<TRIPOS>ATOM
      1 CAI          0.0000     0.0000     0.0000 c3         1 YM7      -0.065400
      2 CAG          1.5310     0.0000     0.0000 c3         1 YM7       0.114800
      3 NAP          2.0210     0.0000     1.3840 n7         1 YM7      -0.829200
      4 CAH          1.5890     1.2060     2.1010 c3         1 YM7       0.114800
      5 CAJ          0.0600     1.2420     2.1640 c3         1 YM7      -0.065400
      6 CAW         -0.5050     1.2420     0.7410 c3         1 YM7      -0.029700
      7 CAK         -2.0340     1.2160     0.7970 c3         1 YM7      -0.111200
      8 NAQ         -2.5210     2.4600     1.4000 nu         1 YM7      -0.776900
      9 C6          -3.8820     2.6660     1.5570 ca         1 YM7       0.602200
     10 C5          -4.7960     1.6990     1.1470 ca         1 YM7      -0.404600
     11 N1          -4.3360     3.7910     2.1080 nb         1 YM7      -0.787000
     12 C2          -5.6280     3.9950     2.2620 ca         1 YM7       0.723900
     13 N3          -6.5230     3.1070     1.8820 nb         1 YM7      -0.771000
     14 C4          -6.1510     1.9550     1.3270 ca         1 YM7       0.631200
     15 NAR         -7.1020     1.0230     0.9340 nu         1 YM7      -0.760600
     16 CAT         -8.4430     1.2380     1.2170 ca         1 YM7       0.525900
     17 CAE         -9.3860     0.2520     0.9210 ca         1 YM7       0.247900
     18 NAN        -10.6580     0.4550     1.1880 nb         1 YM7      -0.605000
     19 CAS        -11.0480     1.6030     1.7420 ca         1 YM7       0.298000
     20 CAB        -12.4320     1.8240     2.0340 cg         1 YM7       0.139800
     21 NAA        -13.5350     1.9830     2.2560 n1         1 YM7      -0.332800
     22 CAD        -10.1050     2.5890     2.0380 ca         1 YM7       0.378900
     23 NAO         -8.8280     2.3800     1.7740 nb         1 YM7      -0.667000
     24 HAI1        -0.0950     0.1220    -1.0720 hc         1 YM7       0.073700
     25 HAI2        -0.4280    -0.9940     0.0350 hc         1 YM7       0.073700
     26 HAG1         2.1670    -0.6420    -0.5970 h1         1 YM7       0.033200
     27 HAG2         2.1600     0.8390    -0.2730 h1         1 YM7       0.033200
     28 HAW         -0.1720     2.1320     0.2210 hc         1 YM7       0.027700
     29 HAP          3.0120    -0.0280     1.2470 hn         1 YM7       0.333800
     30 HAH1         2.1160     2.0690     1.7120 h1         1 YM7       0.033200
     31 HAH2         2.0120     0.8130     3.0180 h1         1 YM7       0.033200
     32 HAJ1        -0.3870     0.2560     2.2020 hc         1 YM7       0.073700
     33 HAJ2         0.2040     2.1940     2.6620 hc         1 YM7       0.073700
     34 HAK1        -2.5420     2.0530     0.3340 h1         1 YM7       0.176700
     35 HAK2        -2.1960     0.2200     0.4030 h1         1 YM7       0.176700
     36 HAQ         -2.3490     3.4130     1.1500 hn         1 YM7       0.464800
     37 H5          -4.2010     0.8250     0.9120 ha         1 YM7       0.166000
     38 H2          -6.1280     4.9110     2.5530 h5         1 YM7       0.071100
     39 HAR         -7.7710     0.8820     1.6650 hn         1 YM7       0.460800
     40 HAE         -9.3800    -0.7850     0.6050 h4         1 YM7       0.068100
     41 HAD        -10.7550     3.3970     2.3520 h4         1 YM7       0.057100
@<TRIPOS>BOND
     1     1     2 1
     2     1     6 1
     3     2     3 1
     4     3     4 1
     5     4     5 1
     6     5     6 1
     7     6     7 1
     8     7     8 1
     9     8     9 1
    10     9    10 ar
    11     9    11 ar
    12    10    14 ar
    13    11    12 ar
    14    12    13 ar
    15    13    14 ar
    16    14    15 1
    17    15    16 1
    18    16    17 ar
    19    16    23 ar
    20    17    18 ar
    21    18    19 ar
    22    19    20 1
    23    19    22 ar
    24    20    21 3
    25    22    23 ar
    26     1    24 1
    27     1    25 1
    28     2    26 1
    29     2    27 1
    30     6    28 1
    31     3    29 1
    32     4    30 1
    33     4    31 1
    34     5    32 1
    35     5    33 1
    36     7    34 1
    37     7    35 1
    38     8    36 1
    39    10    37 1
    40    12    38 1
    41    15    39 1
    42    17    40 1
    43    22    41 1
@<TRIPOS>SUBSTRUCTURE
     1 YM7         1 TEMP              0 ****  ****    0 ROOT
