@<TRIPOS>MOLECULE
molecule
   46    48     1     0     0
SMALL
bcc


@<TRIPOS>ATOM
      1 CAA          0.0000     0.0000     0.0000 c3         1 YM8      -0.117100
      2 CAB          4.0610    -2.5080    -1.1580 c3         1 YM8       0.151600
      3 CAC          3.9210    -0.1810    -1.8100 c3         1 YM8       0.151600
      4 NAD          3.1150    -0.8560     4.6010 n1         1 YM8      -0.353800
      5 CAG          0.6090     6.6700    -4.4370 ca         1 YM8      -0.094000
      6 CAH          0.4070     5.4060    -4.9900 ca         1 YM8      -0.133000
      7 CAI          0.9550     6.8150    -3.1270 ca         1 YM8      -0.131000
      8 CAJ          2.6290     3.5730     3.1380 ca         1 YM8       0.197900
      9 CAK          1.0610     3.2610    -2.0640 ca         1 YM8       0.479200
     10 CAL          1.4560     5.7640    -0.9640 ca         1 YM8      -0.300300
     11 CAM          2.0410    -1.2490    -0.7220 c3         1 YM8       0.164800
     12 NAN          2.8580     2.4720     3.8210 nb         1 YM8      -0.562000
     13 NAO          1.3940     3.4040    -0.8030 nb         1 YM8      -0.683000
     14 NAP          1.9720     2.3190     1.2490 nb         1 YM8      -0.744000
     15 OAR          2.0070     0.0000     1.3470 os         1 YM8      -0.398100
     16 CAS          0.5480     4.2780    -4.2390 ca         1 YM8       0.061400
     17 CAT          2.6630     1.2830     3.2540 ca         1 YM8       0.312000
     18 CAU          2.1740     3.5000     1.8200 ca         1 YM8       0.617900
     19 CAV          1.5810     4.5960    -0.2400 ca         1 YM8       0.677200
     20 CAW          2.2110     1.2070     1.9270 ca         1 YM8       0.621300
     21 CAX          1.1020     5.6770    -2.3210 ca         1 YM8       0.031000
     22 CAY          0.9030     4.3880    -2.8840 ca         1 YM8      -0.197300
     23 CAZ          1.5300     0.0000     0.0000 c3         1 YM8       0.138100
     24 NBA          3.5040    -1.1900    -0.8260 n3         1 YM8      -0.731600
     25 HAA         -0.3610    -0.7870     0.6510 hc         1 YM8       0.047367
     26 HAAA        -0.3610     0.9570     0.3570 hc         1 YM8       0.047367
     27 HAAB        -0.3610    -0.1700    -1.0070 hc         1 YM8       0.047367
     28 HAB          3.7800    -3.2220    -0.3930 h1         1 YM8       0.033200
     29 HABA         5.1410    -2.4410    -1.2090 h1         1 YM8       0.033200
     30 HABB         3.6740    -2.8340    -2.1150 h1         1 YM8       0.033200
     31 HAC          3.8390     0.8060    -1.3710 h1         1 YM8       0.033200
     32 HACA         4.9500    -0.3620    -2.0990 h1         1 YM8       0.033200
     33 HACB         3.2840    -0.2420    -2.6840 h1         1 YM8       0.033200
     34 HAG          0.4920     7.5550    -5.0510 ha         1 YM8       0.139000
     35 HAH          0.1320     5.3100    -6.0340 ha         1 YM8       0.147000
     36 HAI          1.1080     7.8050    -2.7150 ha         1 YM8       0.141000
     37 HAJ          2.7880     4.5400     3.6000 h4         1 YM8       0.032100
     38 HAK          0.9200     2.2690    -2.4770 h4         1 YM8       0.040100
     39 HAL          1.6130     6.7210    -0.4810 ha         1 YM8       0.142000
     40 HAM          1.7840    -1.1890    -1.7730 h1         1 YM8       0.045700
     41 HAMA         1.5820    -2.1300    -0.2880 h1         1 YM8       0.045700
     42 HNAQ         2.0290     5.5550     1.5530 hn         1 YM8       0.470800
     43 HAZ          1.8910     0.8850    -0.5110 h1         1 YM8       0.089700
     44 NAQ          1.9340     4.6640     1.1060 nu         1 YM8      -0.858600
     45 CAF          2.9130     0.0840     3.9970 cg         1 YM8       0.165800
     46 Cl           0.2900     2.7160    -4.9510 cl         1 YM8      -0.101400
@<TRIPOS>BOND
     1     1    23 1
     2     1    25 1
     3     1    26 1
     4     1    27 1
     5    24     2 1
     6     2    28 1
     7     2    29 1
     8     2    30 1
     9    24     3 1
    10     3    31 1
    11     3    32 1
    12     3    33 1
    13    45     4 3
    14    46    16 1
    15    17    45 1
    16     6     5 ar
    17     5     7 ar
    18     5    34 1
    19    16     6 ar
    20     6    35 1
    21    21     7 ar
    22     7    36 1
    23    18     8 ar
    24     8    12 ar
    25     8    37 1
    26     9    13 ar
    27     9    22 ar
    28     9    38 1
    29    19    10 ar
    30    21    10 ar
    31    10    39 1
    32    23    11 1
    33    11    24 1
    34    11    40 1
    35    11    41 1
    36    12    17 ar
    37    13    19 ar
    38    18    14 ar
    39    14    20 ar
    40    19    44 1
    41    44    18 1
    42    44    42 1
    43    20    15 1
    44    23    15 1
    45    16    22 ar
    46    20    17 ar
    47    22    21 ar
    48    23    43 1
@<TRIPOS>SUBSTRUCTURE
     1 YM8         1 TEMP              0 ****  ****    0 ROOT
