@<TRIPOS>MOLECULE
molecule
   63    62     1     0     0
SMALL
bcc


@<TRIPOS>ATOM
      1 O8           0.0000     0.0000     0.0000 o          1 YMA      -0.882300
      2 C2           1.2070     0.0000     0.0000 c          1 YMA       0.897600
      3 O7           1.8780     0.0000     1.1630 o          1 YMA      -0.882300
      4 C1           1.9610    -0.0030    -1.3040 c3         1 YMA       0.026800
      5 N1           1.0160    -0.1640    -2.4160 n3         1 YMA      -0.683600
      6 C10          1.7010     0.3110    -3.6260 c3         1 YMA       0.144300
      7 C11          1.7340     1.8410    -3.6270 c3         1 YMA       0.141300
      8 N3           2.4750     2.3150    -4.8020 n3         1 YMA      -0.616600
      9 C14          2.4670     3.7820    -4.7430 c3         1 YMA       0.069800
     10 C15          3.4960     4.3290    -5.7000 c          1 YMA       0.645600
     11 N5           3.6820     5.6610    -5.8020 ns         1 YMA      -0.621900
     12 C16          4.6820     6.1910    -6.7300 c3         1 YMA       0.131500
     13 C18          4.6910     7.7190    -6.6510 c3         1 YMA       0.029700
     14 S2           5.9290     8.3770    -7.8020 sh         1 YMA      -0.431900
     15 O6           4.1570     3.5720    -6.3760 o          1 YMA      -0.545100
     16 C12          1.6850     1.9350    -5.9810 c3         1 YMA       0.020800
     17 C13          1.9960     0.5100    -6.3570 c          1 YMA       0.896600
     18 O4           1.2770    -0.1050    -7.3090 o          1 YMA      -0.836300
     19 O3           2.8910    -0.0790    -5.8000 o          1 YMA      -0.836300
     20 C3           0.8080    -1.6060    -2.5900 c3         1 YMA       0.144300
     21 C4          -0.0770    -2.1330    -1.4570 c3         1 YMA       0.141300
     22 N2          -0.4180    -3.5380    -1.7160 n3         1 YMA      -0.616600
     23 C5           0.8350    -4.3000    -1.6210 c3         1 YMA       0.020800
     24 C6           1.5760    -4.2110    -2.9300 c          1 YMA       0.896600
     25 O2           1.0510    -3.6940    -3.8880 o          1 YMA      -0.836300
     26 O1           2.8190    -4.7050    -3.0330 o          1 YMA      -0.836300
     27 C7          -1.2640    -3.9800    -0.5990 c3         1 YMA       0.069800
     28 C8          -1.9230    -5.2870    -0.9540 c          1 YMA       0.645600
     29 O5          -1.7860    -5.7530    -2.0650 o          1 YMA      -0.545100
     30 N4          -2.6660    -5.9390    -0.0380 ns         1 YMA      -0.621900
     31 C9          -3.3070    -7.2090    -0.3830 c3         1 YMA       0.131500
     32 C17         -4.0840    -7.7350     0.8250 c3         1 YMA       0.029700
     33 S1          -4.8780    -9.3080     0.3980 sh         1 YMA      -0.431900
     34 H11          2.4930     0.9340    -1.4150 h1         1 YMA       0.026700
     35 H12          2.6690    -0.8230    -1.3100 h1         1 YMA       0.026700
     36 H101         2.7150    -0.0710    -3.6400 h1         1 YMA       0.081450
     37 H102         1.1710    -0.0400    -4.5030 h1         1 YMA       0.081450
     38 H111         2.2220     2.1920    -2.7260 h1         1 YMA       0.032200
     39 H112         0.7210     2.2230    -3.6610 h1         1 YMA       0.032200
     40 H141         1.4870     4.1500    -5.0190 h1         1 YMA       0.034950
     41 H142         2.7030     4.1050    -3.7360 h1         1 YMA       0.034950
     42 HN5          3.1540     6.2850    -5.2240 hn         1 YMA       0.295500
     43 H161         4.4380     5.8830    -7.7390 h1         1 YMA       0.060450
     44 H162         5.6610     5.8110    -6.4630 h1         1 YMA       0.060450
     45 H181         3.7120     8.1000    -6.9180 h1         1 YMA       0.052950
     46 H182         4.9360     8.0280    -5.6420 h1         1 YMA       0.052950
     47 HS2          5.9350     9.7030    -7.7340 hs         1 YMA       0.191800
     48 H121         1.9330     2.5890    -6.8080 h1         1 YMA       0.015950
     49 H122         0.6300     2.0270    -5.7530 h1         1 YMA       0.015950
     50 H31          0.3240    -1.7900    -3.5410 h1         1 YMA       0.081450
     51 H32          1.7640    -2.1150    -2.5670 h1         1 YMA       0.081450
     52 H41         -0.9850    -1.5450    -1.4050 h1         1 YMA       0.032200
     53 H42          0.4570    -2.0580    -0.5170 h1         1 YMA       0.032200
     54 H51          1.4500    -3.8880    -0.8300 h1         1 YMA       0.015950
     55 H52          0.6120    -5.3370    -1.4030 h1         1 YMA       0.015950
     56 H71         -0.6530    -4.1120     0.2860 h1         1 YMA       0.034950
     57 H72         -2.0240    -3.2330    -0.4050 h1         1 YMA       0.034950
     58 HN4         -2.7880    -5.5490     0.8760 hn         1 YMA       0.295500
     59 H91         -3.9890    -7.0560    -1.2110 h1         1 YMA       0.060450
     60 H92         -2.5500    -7.9300    -0.6670 h1         1 YMA       0.060450
     61 H171        -4.8410    -7.0140     1.1090 h1         1 YMA       0.052950
     62 H172        -3.4020    -7.8880     1.6530 h1         1 YMA       0.052950
     63 HS1         -5.5510    -9.7640     1.4480 hs         1 YMA       0.191800
@<TRIPOS>BOND
     1     1     2 1
     2     2     3 1
     3     2     4 1
     4     4     5 1
     5     4    34 1
     6     4    35 1
     7     5     6 1
     8     5    20 1
     9     6     7 1
    10     6    36 1
    11     6    37 1
    12     7     8 1
    13     7    38 1
    14     7    39 1
    15     8     9 1
    16     8    16 1
    17     9    10 1
    18     9    40 1
    19     9    41 1
    20    10    11 1
    21    10    15 2
    22    11    12 1
    23    11    42 1
    24    12    13 1
    25    12    43 1
    26    12    44 1
    27    13    14 1
    28    13    45 1
    29    13    46 1
    30    14    47 1
    31    16    17 1
    32    16    48 1
    33    16    49 1
    34    17    18 1
    35    17    19 1
    36    20    21 1
    37    20    50 1
    38    20    51 1
    39    21    22 1
    40    21    52 1
    41    21    53 1
    42    22    23 1
    43    22    27 1
    44    23    24 1
    45    23    54 1
    46    23    55 1
    47    24    25 1
    48    24    26 1
    49    27    28 1
    50    27    56 1
    51    27    57 1
    52    28    29 2
    53    28    30 1
    54    30    31 1
    55    30    58 1
    56    31    32 1
    57    31    59 1
    58    31    60 1
    59    32    33 1
    60    32    61 1
    61    32    62 1
    62    33    63 1
@<TRIPOS>SUBSTRUCTURE
     1 YMA         1 TEMP              0 ****  ****    0 ROOT
