@<TRIPOS>MOLECULE
YML
   40    36     1     0     0
SMALL
bcc


@<TRIPOS>ATOM
      1 C8          2.9480    1.6630   -1.0160 c2        1 YML     -0.155000
      2 C4         -3.4090   -4.4890    1.8470 c3        1 YML     -0.239000
      3 C3         -4.8340   -4.0180    1.7830 c2        1 YML      0.250000
      4 C7          1.5210    1.9910   -0.7830 c3        1 YML     -0.186000
      5 C6         -0.6390   -0.6760    0.9300 c3        1 YML     -0.245000
      6 C2         -5.8790   -5.0680    1.6050 c3        1 YML     -0.280000
      7 C5         -1.8280   -1.5100    1.2690 c1        1 YML     -0.031000
      8 C9          3.7160    1.3410    0.2270 c3        1 YML      0.006000
      9 P1         -8.8560   -2.8300    2.1670 p2        1 YML      0.852000
     10 O1P        -8.4940   -3.2200    0.6410 oh        1 YML     -0.516000
     11 O2P        -8.9600   -4.1690    2.7290 o         1 YML     -0.557000
     12 OC3        -5.1260   -2.8140    1.8630 o         1 YML     -0.357000
     13 OC5        -2.8800   -0.7820    1.5840 oh        1 YML     -0.240000
     14 CAB         0.5930   -1.2310    1.6000 c3        1 YML     -0.188000
     15 CAA         3.4970    1.6400   -2.2330 c2        1 YML     -0.212000
     16 OC9         5.1160    1.2670    0.0400 oh        1 YML     -0.323000
     17 H8         -0.5240   -0.7410   -0.1890 hc        1 YML      0.097000
     18 H4         -3.2530   -5.2780    1.0650 hc        1 YML      0.124500
     19 H71         0.7220   -2.3120    1.3520 hc        1 YML      0.077000
     20 H72         1.4340    2.9240   -0.1720 hc        1 YML      0.083333
     21 H6          1.0210    1.1590   -0.2220 hc        1 YML      0.083333
     22 H21        -5.7720   -5.8500    2.3960 hc        1 YML      0.113000
     23 H22        -5.7530   -5.5530    0.6050 hc        1 YML      0.113000
     24 H5         -2.7170   -3.6270    1.6100 hc        1 YML      0.124500
     25 H91         3.4810    2.1020    1.0230 h1        1 YML      0.091500
     26 H92         3.4300    0.3190    0.6020 h1        1 YML      0.091500
     27 HP1        -6.9100   -4.6290    1.6620 hc        1 YML      0.113000
     28 HO1P       -8.3090   -2.4210    0.1490 ho        1 YML      0.225000
     29 HOC5       -3.6250   -1.3890    1.7750 ho        1 YML      0.277000
     30 HAB1       -0.7620    0.4100    1.1900 hc        1 YML      0.097000
     31 HAB2        1.4980   -0.6740    1.2560 hc        1 YML      0.077000
     32 HAB3        0.5160   -1.1310    2.7090 hc        1 YML      0.077000
     33 HAA1        0.9750    2.1470   -1.7450 hc        1 YML      0.083333
     34 HAA2        2.9250    1.8710   -3.1410 ha        1 YML      0.118000
     35 HAA3        4.5510    1.3790   -2.3940 ha        1 YML      0.118000
     36 HOC9        5.4000    2.1080   -0.3380 ho        1 YML      0.199000
     37 CAC        -3.0770   -5.0450    3.2090 c3        1 YML     -0.200000
     38 HAC1       -2.0100   -5.3720    3.2320 hc        1 YML      0.079000
     39 HAC2       -3.2240   -4.2690    3.9990 hc        1 YML      0.079000
     40 HAC3       -3.7220   -5.9240    3.4520 hc        1 YML      0.079000
@<TRIPOS>BOND
     1    1    4 1   
     2    1    8 1   
     3    1   15 1   
     4    2    3 1   
     5    2   18 1   
     6    2   24 1   
     7    2   37 1   
     8    3    6 1   
     9    3   12 1   
    10    4   20 1   
    11    4   21 1   
    12    4   33 1   
    13    5    7 1   
    14    5   14 1   
    15    5   17 1   
    16    5   30 1   
    17    6   22 1   
    18    6   23 1   
    19    6   27 1   
    20    7   13 1   
    21    8   16 1   
    22    8   25 1   
    23    8   26 1   
    24    9   10 1   
    25    9   11 1   
    26   10   28 1   
    27   13   29 1   
    28   14   19 1   
    29   14   31 1   
    30   14   32 1   
    31   15   34 1   
    32   15   35 1   
    33   16   36 1   
    34   37   38 1   
    35   37   39 1   
    36   37   40 1   
@<TRIPOS>SUBSTRUCTURE
     1 YML         1 TEMP              0 ****  ****    0 ROOT
