@<TRIPOS>MOLECULE
molecule
   39    38     1     0     0
SMALL
bcc


@<TRIPOS>ATOM
      1 C8           1.5300     0.0000     0.0000 c3         1 YML      -0.072700
      2 C4          -2.5430    -2.5720     1.3200 c3         1 YML      -0.190700
      3 C3          -4.0490    -2.5630     1.3400 c          1 YML       0.595100
      4 C7           0.0000     0.0000     0.0000 c3         1 YML      -0.074400
      5 C6          -0.5090    -1.3160     0.5920 c3         1 YML      -0.092700
      6 C2          -4.8110    -3.8640     1.3260 c3         1 YML      -0.361600
      7 C5          -2.0320    -1.2570     0.7280 c3         1 YML       0.166100
      8 C9           2.0400     0.0000     1.4420 c3         1 YML       0.140400
      9 P1          -6.6010    -3.5200     1.3560 p5         1 YML       1.009600
     10 O1P         -7.4150    -4.9100     1.3410 o          1 YML      -0.802500
     11 O2P         -6.9370    -2.7650     2.5830 o          1 YML      -0.802500
     12 OC3         -4.6470    -1.5140     1.3680 o          1 YML      -0.525100
     13 OC5         -2.3930    -0.1760     1.5900 oh         1 YML      -0.598800
     14 CAB         -0.1230    -2.4730    -0.3310 c3         1 YML      -0.092100
     15 CAA          2.0400     1.2500    -0.7210 c3         1 YML      -0.084100
     16 OC9          3.4640    -0.1170     1.4450 oh         1 YML      -0.619800
     17 H8           1.8920    -0.8840    -0.5110 hc         1 YML       0.061700
     18 H4          -2.1950    -3.4000     0.7140 hc         1 YML       0.059700
     19 H71         -0.3610     0.1030    -1.0160 hc         1 YML       0.048700
     20 H72         -0.3610     0.8290     0.5970 hc         1 YML       0.048700
     21 H6          -0.0650    -1.4680     1.5680 hc         1 YML       0.063700
     22 H21         -4.5410    -4.4490     2.1970 hc         1 YML       0.076700
     23 H22         -4.5640    -4.4170     0.4280 hc         1 YML       0.076700
     24 H5          -2.4760    -1.1040    -0.2480 h1         1 YML       0.034700
     25 H91          1.6080    -0.8370     1.9780 h1         1 YML       0.026700
     26 H92          1.7540     0.9260     1.9270 h1         1 YML       0.026700
     27 HP1         -6.9510    -2.7590     0.2270 hp         1 YML      -0.179400
     28 HOC5        -2.9610     0.4180     1.1280 ho         1 YML       0.411000
     29 HAB1         0.5730    -2.1200    -1.0810 hc         1 YML       0.035367
     30 HAB2        -1.0120    -2.8600    -0.8160 hc         1 YML       0.035367
     31 HAB3         0.3410    -3.2600     0.2520 hc         1 YML       0.035367
     32 HAA1         1.6090     1.2960    -1.7130 hc         1 YML       0.033367
     33 HAA2         1.7530     2.1320    -0.1610 hc         1 YML       0.033367
     34 HAA3         3.1200     1.2070    -0.7980 hc         1 YML       0.033367
     35 HOC9         3.7740    -0.1610     2.3340 ho         1 YML       0.396000
     36 CAC         -2.0140    -2.7280     2.7480 c3         1 YML      -0.071100
     37 HAC1        -2.4720    -3.5940     3.2100 hc         1 YML       0.039700
     38 HAC2        -2.2570    -1.8410     3.3210 hc         1 YML       0.039700
     39 HAC3        -0.9390    -2.8580     2.7220 hc         1 YML       0.039700
@<TRIPOS>BOND
     1     1     4 1
     2     1     8 1
     3     1    15 1
     4     1    17 1
     5     2     3 1
     6     2     7 1
     7     2    36 1
     8     2    18 1
     9     3     6 1
    10     3    12 2
    11     4     5 1
    12     4    19 1
    13     4    20 1
    14     5     7 1
    15     5    14 1
    16     5    21 1
    17     6     9 1
    18     6    22 1
    19     6    23 1
    20     7    13 1
    21     7    24 1
    22     8    16 1
    23     8    25 1
    24     8    26 1
    25     9    10 1
    26     9    11 1
    27     9    27 1
    28    36    37 1
    29    36    38 1
    30    36    39 1
    31    13    28 1
    32    14    29 1
    33    14    30 1
    34    14    31 1
    35    15    32 1
    36    15    33 1
    37    15    34 1
    38    16    35 1
@<TRIPOS>SUBSTRUCTURE
     1 YML         1 TEMP              0 ****  ****    0 ROOT
