@<TRIPOS>MOLECULE
YMP
   59    62     1     0     0
SMALL
bcc


@<TRIPOS>ATOM
      1 N            0.0000     0.0000     0.0000 nz         1 YMP       0.045400
      2 CA           1.4690     0.0000     0.0000 c3         1 YMP      -0.182500
      3 CB           1.9800     0.0000     1.4420 c3         1 YMP       0.046900
      4 CG           1.5810     1.2880     2.1160 ca         1 YMP      -0.182300
      5 CD1          0.3750     1.3710     2.7870 ca         1 YMP      -0.080000
      6 CE1          0.0070     2.5510     3.4050 ca         1 YMP      -0.123000
      7 CZ           0.8490     3.6520     3.3530 ca         1 YMP       0.153100
      8 OH           0.4890     4.8130     3.9600 oh         1 YMP      -0.495100
      9 CE2          2.0590     3.5650     2.6790 ca         1 YMP      -0.123000
     10 CD2          2.4240     2.3820     2.0680 ca         1 YMP      -0.080000
     11 C            1.9710    -1.2300    -0.7110 c          1 YMP       0.606100
     12 O            1.2430    -2.1900    -0.8500 o          1 YMP      -0.619100
     13 N3P          3.2300    -1.2640    -1.1920 ns         1 YMP      -0.239900
     14 P            3.7760    -2.6030    -1.9660 p5         1 YMP       0.713800
     15 O1P          2.8590    -2.8890    -3.2570 o          1 YMP      -0.579500
     16 O2P          5.1770    -2.3880    -2.3930 o          1 YMP      -0.579500
     17 O5'          3.7070    -3.8650    -0.9680 os         1 YMP      -0.392200
     18 C5'          4.7110    -3.6580     0.0290 c3         1 YMP       0.219400
     19 C4'          4.6980    -4.8290     1.0150 c3         1 YMP       0.145100
     20 O4'          5.1200    -6.0320     0.3500 os         1 YMP      -0.367600
     21 C1'          5.8460    -6.8170     1.3200 c3         1 YMP       0.144800
     22 C2'          6.6770    -5.7600     2.0900 c3         1 YMP       0.135100
     23 C3'          5.6950    -4.5610     2.1580 c3         1 YMP       0.123100
     24 O3'          5.0240    -4.5340     3.4200 oh         1 YMP      -0.552800
     25 O2'          7.0040    -6.2250     3.4020 oh         1 YMP      -0.542800
     26 N9           6.7230    -7.7800     0.6510 na         1 YMP       0.204000
     27 C4           7.2050    -8.9480     1.1860 ca         1 YMP       0.227800
     28 N3           7.0680    -9.5730     2.3510 nb         1 YMP      -0.604000
     29 C5           7.9950    -9.5370     0.1840 ca         1 YMP      -0.182200
     30 N7           7.9620    -8.7090    -0.8890 nc         1 YMP      -0.501100
     31 C8           7.2160    -7.6780    -0.6160 cd         1 YMP       0.282700
     32 C6           8.6170   -10.7650     0.4660 ca         1 YMP       0.592200
     33 N6           9.4120   -11.3890    -0.4810 nv         1 YMP      -0.645500
     34 N1           8.4270   -11.3120     1.6610 nb         1 YMP      -0.662000
     35 C2           7.6700   -10.7230     2.5700 ca         1 YMP       0.626900
     36 HN1         -0.3330    -0.8160    -0.4740 hn         1 YMP       0.231133
     37 HN2         -0.3340    -0.0020     0.9440 hn         1 YMP       0.231133
     38 HA           1.8300     0.8850    -0.5110 hx         1 YMP       0.091700
     39 HB1          3.0590    -0.0880     1.4430 hc         1 YMP       0.051700
     40 HB2          1.5480    -0.8370     1.9780 hc         1 YMP       0.051700
     41 HD1         -0.2820     0.5110     2.8270 ha         1 YMP       0.108000
     42 HE1         -0.9380     2.6150     3.9300 ha         1 YMP       0.126500
     43 HOH          0.8040     4.8130     4.8490 ho         1 YMP       0.417000
     44 HE2          2.7200     4.4230     2.6390 ha         1 YMP       0.126500
     45 HD2          3.3690     2.3140     1.5420 ha         1 YMP       0.108000
     46 H3P          3.8400    -0.4820    -1.0530 hn         1 YMP       0.186500
     47 H5'1         5.6830    -3.5960    -0.4450 h1         1 YMP      -0.006300
     48 H5'2         4.5080    -2.7360     0.5600 h1         1 YMP      -0.006300
     49 H4'          3.7030    -4.9650     1.4210 h1         1 YMP       0.039700
     50 H1'          5.1590    -7.3200     1.9900 h2         1 YMP       0.067700
     51 H2'          7.5680    -5.4940     1.5350 h1         1 YMP       0.024700
     52 H3'          6.2250    -3.6320     1.9850 h1         1 YMP       0.011700
     53 H2           4.9210    -3.6410     3.7030 ho         1 YMP       0.378000
     54 H1           7.8660    -5.9240     3.6360 ho         1 YMP       0.387000
     55 H8           7.0150    -6.8590    -1.2960 h5         1 YMP       0.052800
     56 HN61         9.0030   -12.0260    -1.1360 hn         1 YMP       0.279800
     57 HN62        10.3950   -11.2050    -0.5090 hn         1 YMP       0.279800
     58 H3           7.5420   -11.2040     3.5320 h5         1 YMP      -0.003900
     59 HN3         -0.3340     0.8140    -0.4770 hn         1 YMP       0.231133
@<TRIPOS>BOND
     1     1     2 1   
     2     1    36 1   
     3     1    37 1   
     4     1    59 1   
     5     2     3 1   
     6     2    11 1   
     7     2    38 1   
     8     3     4 1   
     9     3    39 1   
    10     3    40 1   
    11     4     5 ar  
    12     4    10 ar  
    13     5     6 ar  
    14     5    41 1   
    15     6     7 ar  
    16     6    42 1   
    17     7     8 1   
    18     7     9 ar  
    19     8    43 1   
    20     9    10 ar  
    21     9    44 1   
    22    10    45 1   
    23    11    12 2   
    24    11    13 1   
    25    13    14 1   
    26    13    46 1   
    27    14    15 1   
    28    14    16 1   
    29    14    17 1   
    30    17    18 1   
    31    18    19 1   
    32    18    47 1   
    33    18    48 1   
    34    19    20 1   
    35    19    23 1   
    36    19    49 1   
    37    20    21 1   
    38    21    22 1   
    39    21    26 1   
    40    21    50 1   
    41    22    23 1   
    42    22    25 1   
    43    22    51 1   
    44    23    24 1   
    45    23    52 1   
    46    24    53 1   
    47    25    54 1   
    48    26    27 1   
    49    26    31 1   
    50    27    28 ar  
    51    27    29 ar  
    52    28    35 ar  
    53    29    30 1   
    54    29    32 ar  
    55    30    31 2   
    56    31    55 1   
    57    32    33 1   
    58    32    34 ar  
    59    33    56 1   
    60    33    57 1   
    61    34    35 ar  
    62    35    58 1   
@<TRIPOS>SUBSTRUCTURE
     1 YMP         1 TEMP              0 ****  ****    0 ROOT
