@<TRIPOS>MOLECULE
YMX
   75    80     1     0     0
SMALL
bcc


@<TRIPOS>ATOM
      1 C1           0.0000     0.0000     0.0000 ca         1 YMX      -0.117000
      2 C2           1.3930     0.0000     0.0000 ca         1 YMX      -0.171200
      3 N3           2.3410     0.0000     0.9900 na         1 YMX       0.419900
      4 N4           3.6130     0.0010     0.4090 nc         1 YMX      -0.614100
      5 C5           3.5090     0.0000    -0.8940 cd         1 YMX       0.312500
      6 N6           4.5700     0.0000    -1.8060 ns         1 YMX      -0.008400
      7 C7           5.8420     0.0000    -1.3600 c          1 YMX       0.603700
      8 O8           6.0680     0.0000    -0.1640 o          1 YMX      -0.626100
      9 C9           6.9570     0.0010    -2.3190 ca         1 YMX      -0.299600
     10 C10          6.7050    -0.1240    -3.6900 ca         1 YMX       0.005000
     11 C11          7.7400    -0.1240    -4.5790 ca         1 YMX      -0.248000
     12 C12          9.0540    -0.0000    -4.1330 ca         1 YMX       0.106600
     13 N13         10.1010    -0.0020    -5.0490 nh         1 YMX      -0.363000
     14 C14          9.5970    -0.1430    -6.4230 c3         1 YMX       0.135800
     15 C15         10.7690    -0.0610    -7.4030 c3         1 YMX       0.152300
     16 N16         11.7410    -1.1170    -7.0910 n3         1 YMX      -0.548600
     17 C17         12.8460    -1.1190    -8.0590 c3         1 YMX       0.189100
     18 C18         12.2450    -0.9760    -5.7170 c3         1 YMX       0.152300
     19 C19         11.0730    -1.0580    -4.7370 c3         1 YMX       0.135800
     20 C20          9.3230     0.1240    -2.7760 ca         1 YMX      -0.260000
     21 C21          8.2810     0.1310    -1.8630 ca         1 YMX       0.168600
     22 N22          8.5420     0.2600    -0.5050 nu         1 YMX      -0.429600
     23 C23          9.9080     0.5160    -0.0420 c3         1 YMX       0.131500
     24 C24          9.8670     1.2140     1.3200 c3         1 YMX      -0.085400
     25 C25         11.2970     1.4070     1.8300 c3         1 YMX       0.218900
     26 O26         11.9480     0.1380     1.9100 os         1 YMX      -0.407600
     27 C27         12.0590    -0.5410     0.6570 c3         1 YMX       0.218900
     28 C28         10.6590    -0.8120     0.0990 c3         1 YMX      -0.085400
     29 C29          2.0840     0.0000    -1.2260 ca         1 YMX      -0.269900
     30 C30          1.3660     0.0010    -2.4250 ca         1 YMX      -0.013000
     31 C31          0.0010     0.0010    -2.3960 ca         1 YMX      -0.141300
     32 C32         -0.7740     0.0020    -3.6890 c3         1 YMX       0.095200
     33 C33         -1.0320    -1.4190    -4.1200 ca         1 YMX      -0.031300
     34 C34         -2.1780    -2.0700    -3.7020 ca         1 YMX      -0.144500
     35 C35         -2.4160    -3.3750    -4.0970 ca         1 YMX       0.136900
     36 F36         -3.5360    -4.0120    -3.6880 f          1 YMX      -0.124900
     37 C37         -1.5070    -4.0280    -4.9120 ca         1 YMX      -0.173000
     38 C38         -0.3600    -3.3750    -5.3290 ca         1 YMX       0.136900
     39 F39          0.5270    -4.0110    -6.1250 f          1 YMX      -0.124900
     40 C40         -0.1260    -2.0680    -4.9370 ca         1 YMX      -0.144500
     41 C41         -0.6790     0.0000    -1.1860 ca         1 YMX      -0.048000
     42 H1          -0.5430    -0.0010     0.9370 ha         1 YMX       0.107000
     43 H10          5.6860    -0.2210    -4.0460 ha         1 YMX       0.089000
     44 H11          7.5380    -0.2210    -5.6390 ha         1 YMX       0.127000
     45 H14          8.8950     0.6550    -6.6330 h1         1 YMX       0.025700
     46 H14A         9.1050    -1.1020    -6.5290 h1         1 YMX       0.025700
     47 H15         11.2470     0.9070    -7.3120 h1         1 YMX       0.015200
     48 H15A        10.4020    -0.1950    -8.4140 h1         1 YMX       0.015200
     49 H17         13.5290    -1.9270    -7.8250 h1         1 YMX       0.001367
     50 H17A        12.4510    -1.2570    -9.0580 h1         1 YMX       0.001367
     51 H17B        13.3740    -0.1740    -8.0060 h1         1 YMX       0.001367
     52 H18         12.7370    -0.0160    -5.6110 h1         1 YMX       0.015200
     53 H18A        12.9470    -1.7730    -5.5070 h1         1 YMX       0.015200
     54 H19         10.5960    -2.0260    -4.8270 h1         1 YMX       0.025700
     55 H19A        11.4390    -0.9230    -3.7260 h1         1 YMX       0.025700
     56 H20         10.3460     0.2220    -2.4330 ha         1 YMX       0.135000
     57 HN22         7.8010     0.1540     0.1590 hn         1 YMX       0.367800
     58 H23         10.4240     1.1470    -0.7550 h1         1 YMX       0.037700
     59 H24          9.3870     2.1800     1.2150 hc         1 YMX       0.032700
     60 H24A         9.3120     0.6030     2.0220 hc         1 YMX       0.032700
     61 H25         11.8400     2.0480     1.1460 h1         1 YMX       0.007200
     62 H25A        11.2700     1.8600     2.8140 h1         1 YMX       0.007200
     63 H27         12.5770    -1.4810     0.8020 h1         1 YMX       0.007200
     64 H27A        12.6110     0.0780    -0.0400 h1         1 YMX       0.007200
     65 H28         10.1200    -1.4610     0.7780 hc         1 YMX       0.032700
     66 H28A        10.7430    -1.2840    -0.8720 hc         1 YMX       0.032700
     67 H30          1.8880     0.1150    -3.3680 ha         1 YMX       0.098000
     68 H32         -1.7180     0.5130    -3.5440 hc         1 YMX       0.024200
     69 H32A        -0.2010     0.5120    -4.4530 hc         1 YMX       0.024200
     70 H34         -2.9080    -1.5460    -3.0970 ha         1 YMX       0.124000
     71 H37         -1.6930    -5.0500    -5.2220 ha         1 YMX       0.136000
     72 H40          0.7710    -1.5570    -5.2640 ha         1 YMX       0.124000
     73 H41         -1.7630     0.0000    -1.1810 ha         1 YMX       0.104000
     74 H6           4.3850     0.0190    -2.7890 hn         1 YMX       0.177500
     75 H3           2.1530     0.0000     1.9730 hn         1 YMX       0.155700
@<TRIPOS>BOND
     1     1     2 ar  
     2     1    41 ar  
     3     1    42 1   
     4     2     3 1   
     5     2    29 ar  
     6     3     4 1   
     7     3    75 1   
     8     4     5 2   
     9     5     6 1   
    10     5    29 1   
    11     6     7 1   
    12     6    74 1   
    13     7     8 2   
    14     7     9 1   
    15     9    10 ar  
    16     9    21 ar  
    17    10    11 ar  
    18    10    43 1   
    19    11    12 ar  
    20    11    44 1   
    21    12    13 1   
    22    12    20 ar  
    23    13    14 1   
    24    13    19 1   
    25    14    15 1   
    26    14    45 1   
    27    14    46 1   
    28    15    16 1   
    29    15    47 1   
    30    15    48 1   
    31    16    17 1   
    32    16    18 1   
    33    17    49 1   
    34    17    50 1   
    35    17    51 1   
    36    18    19 1   
    37    18    52 1   
    38    18    53 1   
    39    19    54 1   
    40    19    55 1   
    41    20    21 ar  
    42    20    56 1   
    43    21    22 1   
    44    22    23 1   
    45    22    57 1   
    46    23    24 1   
    47    23    28 1   
    48    23    58 1   
    49    24    25 1   
    50    24    59 1   
    51    24    60 1   
    52    25    26 1   
    53    25    61 1   
    54    25    62 1   
    55    26    27 1   
    56    27    28 1   
    57    27    63 1   
    58    27    64 1   
    59    28    65 1   
    60    28    66 1   
    61    29    30 ar  
    62    30    31 ar  
    63    30    67 1   
    64    31    32 1   
    65    31    41 ar  
    66    32    33 1   
    67    32    68 1   
    68    32    69 1   
    69    33    34 ar  
    70    33    40 ar  
    71    34    35 ar  
    72    34    70 1   
    73    35    36 1   
    74    35    37 ar  
    75    37    38 ar  
    76    37    71 1   
    77    38    39 1   
    78    38    40 ar  
    79    40    72 1   
    80    41    73 1   
@<TRIPOS>SUBSTRUCTURE
     1 YMX         1 TEMP              0 ****  ****    0 ROOT
