@<TRIPOS>MOLECULE
molecule
   42    44     1     0     0
SMALL
bcc


@<TRIPOS>ATOM
      1 FAE          0.0000     0.0000     0.0000 f          1 YMZ      -0.217633
      2 CAZ          1.3990     0.0000     0.0000 c3         1 YMZ       0.685200
      3 FAF          1.8660     0.0000     1.3180 f          1 YMZ      -0.217633
      4 FAG          1.8660    -1.1430    -0.6590 f          1 YMZ      -0.217633
      5 CAT          1.9020     1.2300    -0.7110 ca         1 YMZ      -0.213600
      6 CAI          1.0190     2.1270    -1.2290 ca         1 YMZ      -0.063000
      7 CAH          1.4620     3.2720    -1.8900 ca         1 YMZ      -0.134000
      8 CAJ          2.7920     3.5240    -2.0360 ca         1 YMZ      -0.071000
      9 CAU          3.7310     2.6200    -1.5140 ca         1 YMZ      -0.118300
     10 CAV          3.2830     1.4580    -0.8370 ca         1 YMZ       0.446600
     11 NAP          4.1730     0.5950    -0.3370 nb         1 YMZ      -0.635000
     12 CAR          5.4630     0.7980    -0.4590 ca         1 YMZ       0.364600
     13 CAY          6.4220    -0.2080     0.1240 c3         1 YMZ       0.582600
     14 FAC          7.3000    -0.6460    -0.8730 f          1 YMZ      -0.212300
     15 FAD          7.1520     0.3880     1.1580 f          1 YMZ      -0.212300
     16 FAB          5.7050    -1.2990     0.6270 f          1 YMZ      -0.212300
     17 CAK          5.9690     1.9180    -1.1130 ca         1 YMZ      -0.203300
     18 CAS          5.1150     2.8430    -1.6440 ca         1 YMZ      -0.044300
     19 CAW          5.6390     4.0660    -2.3510 c3         1 YMZ       0.195400
     20 OAA          6.9490     4.3700    -1.8690 oh         1 YMZ      -0.595800
     21 CAX          5.6980     3.7970    -3.8560 c3         1 YMZ       0.165500
     22 CAO          6.2320     5.0390    -4.5750 c3         1 YMZ      -0.115400
     23 CAM          6.2710     4.7730    -6.0820 c3         1 YMZ      -0.079400
     24 CAL          4.8650     4.4020    -6.5640 c3         1 YMZ      -0.126400
     25 CAN          4.3710     3.1790    -5.7870 c3         1 YMZ       0.159800
     26 NAQ          4.3520     3.4840    -4.3510 n7         1 YMZ      -0.812200
     27 H1          -0.0440     1.9500    -1.1260 ha         1 YMZ       0.156000
     28 H2           0.7390     3.9700    -2.2930 ha         1 YMZ       0.140000
     29 H3           3.1230     4.4170    -2.5520 ha         1 YMZ       0.136000
     30 H4           7.0400     2.0580    -1.1980 ha         1 YMZ       0.169000
     31 H5           4.9800     4.9040    -2.1600 h1         1 YMZ       0.042700
     32 H6           6.8920     5.0310    -1.1990 ho         1 YMZ       0.412000
     33 H7           6.3560     2.9590    -4.0520 h1         1 YMZ       0.087700
     34 H8           5.5790     5.8800    -4.3740 hc         1 YMZ       0.051200
     35 H9           7.2320     5.2580    -4.2210 hc         1 YMZ       0.051200
     36 H10          6.9500     3.9540    -6.2860 hc         1 YMZ       0.048200
     37 H11          6.6050     5.6650    -6.5970 hc         1 YMZ       0.048200
     38 H12          4.1930     5.2340    -6.3910 hc         1 YMZ       0.046200
     39 H13          4.8960     4.1690    -7.6220 hc         1 YMZ       0.046200
     40 H14          5.0380     2.3450    -5.9680 h1         1 YMZ       0.060700
     41 H15          3.3700     2.9250    -6.1150 h1         1 YMZ       0.060700
     42 H16          3.7450     4.2630    -4.1840 hn         1 YMZ       0.346800
@<TRIPOS>BOND
     1    23    24 1
     2    23    22 1
     3    24    25 1
     4    22    21 1
     5    25    26 1
     6    21    26 1
     7    21    19 1
     8    19    20 1
     9    19    18 1
    10    18     9 ar
    11    18    17 ar
    12     8     9 ar
    13     8     7 ar
    14     9    10 ar
    15     7     6 ar
    16    17    12 ar
    17    10    11 ar
    18    10     5 ar
    19     6     5 ar
    20    12    11 ar
    21    12    13 1
    22    14    13 1
    23    15    13 1
    24     5     2 1
    25    13    16 1
    26     2     1 1
    27     2     3 1
    28     2     4 1
    29     6    27 1
    30     7    28 1
    31     8    29 1
    32    17    30 1
    33    19    31 1
    34    20    32 1
    35    21    33 1
    36    22    34 1
    37    22    35 1
    38    23    36 1
    39    23    37 1
    40    24    38 1
    41    24    39 1
    42    25    40 1
    43    25    41 1
    44    26    42 1
@<TRIPOS>SUBSTRUCTURE
     1 YMZ         1 TEMP              0 ****  ****    0 ROOT
