@<TRIPOS>MOLECULE
YMZ
   42    44     1     0     0
SMALL
bcc


@<TRIPOS>ATOM
      1 FAE          0.0000     0.0000     0.0000 f          1 YMZ      -0.204967
      2 CAZ          1.3990     0.0000     0.0000 c3         1 YMZ       0.653200
      3 FAF          1.8660     0.0000     1.3180 f          1 YMZ      -0.204967
      4 FAG          1.8660    -1.1430    -0.6590 f          1 YMZ      -0.204967
      5 CAT          1.9020     1.2300    -0.7110 ca         1 YMZ      -0.243600
      6 CAI          1.0190     2.1270    -1.2290 ca         1 YMZ      -0.026000
      7 CAH          1.4620     3.2720    -1.8900 ca         1 YMZ      -0.100000
      8 CAJ          2.7920     3.5240    -2.0360 ca         1 YMZ      -0.057000
      9 CAU          3.7310     2.6200    -1.5140 ca         1 YMZ      -0.105300
     10 CAV          3.2830     1.4580    -0.8370 ca         1 YMZ       0.400600
     11 NAP          4.1730     0.5950    -0.3370 nb         1 YMZ      -0.496000
     12 CAR          5.4630     0.7980    -0.4590 ca         1 YMZ       0.285600
     13 CAY          6.4220    -0.2080     0.1240 c3         1 YMZ       0.537600
     14 FAC          7.3000    -0.6460    -0.8730 f          1 YMZ      -0.202300
     15 FAD          7.1520     0.3880     1.1580 f          1 YMZ      -0.202300
     16 FAB          5.7050    -1.2990     0.6270 f          1 YMZ      -0.202300
     17 CAK          5.9690     1.9180    -1.1130 ca         1 YMZ      -0.156300
     18 CAS          5.1150     2.8430    -1.6440 ca         1 YMZ      -0.063300
     19 CAW          5.6390     4.0660    -2.3510 c3         1 YMZ       0.246400
     20 OAA          6.9490     4.3700    -1.8690 oh         1 YMZ      -0.576800
     21 CAX          5.6980     3.7970    -3.8560 c3         1 YMZ       0.111500
     22 CAO          6.2320     5.0390    -4.5750 c3         1 YMZ      -0.059400
     23 CAM          6.2710     4.7730    -6.0820 c3         1 YMZ      -0.021400
     24 CAL          4.8650     4.4020    -6.5640 c3         1 YMZ      -0.064400
     25 CAN          4.3710     3.1790    -5.7870 c3         1 YMZ       0.150800
     26 NAQ          4.3520     3.4840    -4.3510 n7         1 YMZ      -0.595200
     27 H1          -0.0440     1.9500    -1.1260 ha         1 YMZ       0.124000
     28 H2           0.7390     3.9700    -2.2930 ha         1 YMZ       0.110000
     29 H3           3.1230     4.4170    -2.5520 ha         1 YMZ       0.119000
     30 H4           7.0400     2.0580    -1.1980 ha         1 YMZ       0.143000
     31 H5           4.9800     4.9040    -2.1600 h1         1 YMZ       0.010700
     32 H6           6.8920     5.0310    -1.1990 ho         1 YMZ       0.397000
     33 H7           6.3560     2.9590    -4.0520 h1         1 YMZ       0.057700
     34 H8           5.5790     5.8800    -4.3740 hc         1 YMZ       0.025200
     35 H9           7.2320     5.2580    -4.2210 hc         1 YMZ       0.025200
     36 H10          6.9500     3.9540    -6.2860 hc         1 YMZ       0.020200
     37 H11          6.6050     5.6650    -6.5970 hc         1 YMZ       0.020200
     38 H12          4.1930     5.2340    -6.3910 hc         1 YMZ       0.019200
     39 H13          4.8960     4.1690    -7.6220 hc         1 YMZ       0.019200
     40 H14          5.0380     2.3450    -5.9680 h1         1 YMZ       0.026700
     41 H15          3.3700     2.9250    -6.1150 h1         1 YMZ       0.026700
     42 H16          3.7450     4.2630    -4.1840 hn         1 YMZ       0.258800
@<TRIPOS>BOND
     1     1     2 1   
     2     2     3 1   
     3     2     4 1   
     4     2     5 1   
     5     5     6 ar  
     6     5    10 ar  
     7     6     7 ar  
     8     6    27 1   
     9     7     8 ar  
    10     7    28 1   
    11     8     9 ar  
    12     8    29 1   
    13     9    10 ar  
    14     9    18 ar  
    15    10    11 ar  
    16    11    12 ar  
    17    12    13 1   
    18    12    17 ar  
    19    13    14 1   
    20    13    15 1   
    21    13    16 1   
    22    17    18 ar  
    23    17    30 1   
    24    18    19 1   
    25    19    20 1   
    26    19    21 1   
    27    19    31 1   
    28    20    32 1   
    29    21    22 1   
    30    21    26 1   
    31    21    33 1   
    32    22    23 1   
    33    22    34 1   
    34    22    35 1   
    35    23    24 1   
    36    23    36 1   
    37    23    37 1   
    38    24    25 1   
    39    24    38 1   
    40    24    39 1   
    41    25    26 1   
    42    25    40 1   
    43    25    41 1   
    44    26    42 1   
@<TRIPOS>SUBSTRUCTURE
     1 YMZ         1 TEMP              0 ****  ****    0 ROOT
