@<TRIPOS>MOLECULE
molecule
   61    64     1     0     0
SMALL
bcc


@<TRIPOS>ATOM
      1 N           -0.8860    -0.0010    -2.4530 n1         1 YN4      -0.375800
      2 C7          -0.4900     0.0000    -1.3880 c1         1 YN4       0.205700
      3 C6           0.0000     0.0000     0.0000 c3         1 YN4      -0.011300
      4 C5           1.5310     0.0000     0.0000 c3         1 YN4       0.000700
      5 S            2.1340     0.0000     1.7060 ss         1 YN4      -0.211000
      6 C4           1.8110    -1.6770     2.1440 ca         1 YN4       0.085900
      7 C8           2.7830    -2.6880     1.9360 ca         1 YN4      -0.104300
      8 C23          2.4790    -4.0190     2.3030 ca         1 YN4       0.398600
      9 N4           1.2860    -4.3160     2.8410 nb         1 YN4      -0.663000
     10 C24          0.3710    -3.4040     3.0450 ca         1 YN4       0.447200
     11 C3           0.5870    -2.0550     2.7160 ca         1 YN4      -0.214900
     12 C           -0.4600    -1.0540     2.9640 c          1 YN4       0.637700
     13 O1          -1.6330    -1.4250     3.5140 os         1 YN4      -0.428900
     14 C1          -2.6200    -0.3820     3.7300 c3         1 YN4       0.137400
     15 C2          -3.8760    -0.9910     4.3560 c3         1 YN4      -0.091100
     16 O           -0.2670     0.1120     2.6720 o          1 YN4      -0.529000
     17 C22          3.4400    -5.0220     2.0980 ca         1 YN4      -0.129300
     18 C21          4.6460    -4.7090     1.5510 ca         1 YN4      -0.189000
     19 C10          4.9500    -3.3960     1.1870 ca         1 YN4       0.144100
     20 C9           4.0310    -2.3880     1.3740 ca         1 YN4      -0.153000
     21 O2           6.1640    -3.1110     0.6430 os         1 YN4      -0.319900
     22 C11          7.0720    -4.2010     0.4750 c3         1 YN4       0.193700
     23 C12          8.3540    -3.6970    -0.1370 ca         1 YN4      -0.258600
     24 C20          9.3870    -3.2640     0.6690 ca         1 YN4       0.474200
     25 N3          10.5140    -2.8210     0.1440 nb         1 YN4      -0.741000
     26 C15         10.6990    -2.7740    -1.1660 ca         1 YN4       0.628200
     27 C14          9.6990    -3.1950    -2.0370 ca         1 YN4      -0.272300
     28 C13          8.5090    -3.6690    -1.5160 ca         1 YN4      -0.048000
     29 N1          11.9020    -2.3000    -1.6760 nh         1 YN4      -0.704300
     30 C19         12.8150    -1.9090    -0.5930 c3         1 YN4       0.175300
     31 C18         14.0930    -1.3190    -1.1940 c3         1 YN4       0.142800
     32 N2          14.7210    -2.3140    -2.0760 n7         1 YN4      -0.794200
     33 C17         13.8080    -2.7060    -3.1580 c3         1 YN4       0.142800
     34 C16         12.5300    -3.2940    -2.5570 c3         1 YN4       0.175300
     35 H61C        -0.3610    -0.8850     0.5100 hc         1 YN4       0.086700
     36 H62C        -0.3610     0.8840     0.5110 hc         1 YN4       0.086700
     37 H51C         1.8920     1.0110    -0.1460 h1         1 YN4       0.084700
     38 H52C         1.8920    -0.6320    -0.8030 h1         1 YN4       0.084700
     39 H9           4.2660    -1.3700     1.0890 ha         1 YN4       0.171000
     40 H22          3.2210    -6.0470     2.3740 ha         1 YN4       0.155000
     41 H24         -0.5810    -3.6810     3.4820 h4         1 YN4       0.045100
     42 H11C        -2.3500     0.1950     4.6060 h1         1 YN4       0.054200
     43 H12C        -2.6520     0.2700     2.8650 h1         1 YN4       0.054200
     44 H21C        -3.6160    -1.4730     5.2910 hc         1 YN4       0.048367
     45 H22C        -4.3000    -1.7220     3.6790 hc         1 YN4       0.048367
     46 H23C        -4.6020    -0.2090     4.5430 hc         1 YN4       0.048367
     47 H21          5.3860    -5.4840     1.3930 ha         1 YN4       0.142000
     48 H111         6.6280    -4.9440    -0.1770 h1         1 YN4       0.041200
     49 H112         7.2830    -4.6470     1.4390 h1         1 YN4       0.041200
     50 H20          9.2790    -3.2850     1.7460 h4         1 YN4       0.026100
     51 H13          7.7060    -4.0100    -2.1590 ha         1 YN4       0.142000
     52 H14          9.8600    -3.1520    -3.1080 ha         1 YN4       0.147000
     53 H191        13.0050    -2.7720     0.0340 h1         1 YN4       0.055700
     54 H192        12.3440    -1.1340    -0.0000 h1         1 YN4       0.055700
     55 H161        12.6750    -4.2130    -2.0010 h1         1 YN4       0.055700
     56 H162        11.8710    -3.4840    -3.3960 h1         1 YN4       0.055700
     57 H181        13.8530    -0.3780    -1.6750 h1         1 YN4       0.043700
     58 H182        14.8060    -1.1420    -0.3980 h1         1 YN4       0.043700
     59 H2          15.5070    -1.9020    -2.5370 hn         1 YN4       0.345800
     60 H171        14.2550    -3.5200    -3.7160 h1         1 YN4       0.043700
     61 H172        13.6620    -1.8590    -3.8180 h1         1 YN4       0.043700
@<TRIPOS>BOND
     1     1     2 3
     2     2     3 1
     3     3     4 1
     4     4     5 1
     5     5     6 1
     6     6     7 ar
     7     6    11 ar
     8     7     8 ar
     9     7    20 ar
    10     8     9 ar
    11     8    17 ar
    12     9    10 ar
    13    10    11 ar
    14    11    12 1
    15    12    13 1
    16    12    16 2
    17    13    14 1
    18    14    15 1
    19    17    18 ar
    20    18    19 ar
    21    19    20 ar
    22    19    21 1
    23    21    22 1
    24    22    23 1
    25    23    24 ar
    26    23    28 ar
    27    24    25 ar
    28    25    26 ar
    29    26    27 ar
    30    26    29 1
    31    27    28 ar
    32    29    30 1
    33    29    34 1
    34    30    31 1
    35    31    32 1
    36    32    33 1
    37    33    34 1
    38     3    35 1
    39     3    36 1
    40     4    37 1
    41     4    38 1
    42    20    39 1
    43    17    40 1
    44    10    41 1
    45    14    42 1
    46    14    43 1
    47    15    44 1
    48    15    45 1
    49    15    46 1
    50    18    47 1
    51    22    48 1
    52    22    49 1
    53    24    50 1
    54    28    51 1
    55    27    52 1
    56    30    53 1
    57    30    54 1
    58    34    55 1
    59    34    56 1
    60    31    57 1
    61    31    58 1
    62    32    59 1
    63    33    60 1
    64    33    61 1
@<TRIPOS>SUBSTRUCTURE
     1 YN4         1 TEMP              0 ****  ****    0 ROOT
