@<TRIPOS>MOLECULE
YN4
   61    64     1     0     0
SMALL
bcc


@<TRIPOS>ATOM
      1 N           -0.8860    -0.0010    -2.4530 n1         1 YN4      -0.387800
      2 C7          -0.4900     0.0000    -1.3880 c1         1 YN4       0.183700
      3 C6           0.0000     0.0000     0.0000 c3         1 YN4       0.096700
      4 C5           1.5310     0.0000     0.0000 c3         1 YN4       0.079700
      5 S            2.1340     0.0000     1.7060 ss         1 YN4      -0.292000
      6 C4           1.8110    -1.6770     2.1440 ca         1 YN4       0.091900
      7 C8           2.7830    -2.6880     1.9360 ca         1 YN4      -0.083300
      8 C23          2.4790    -4.0190     2.3030 ca         1 YN4       0.342600
      9 N4           1.2860    -4.3160     2.8410 nb         1 YN4      -0.537000
     10 C24          0.3710    -3.4040     3.0450 ca         1 YN4       0.412200
     11 C3           0.5870    -2.0550     2.7160 ca         1 YN4      -0.206900
     12 C           -0.4600    -1.0540     2.9640 c          1 YN4       0.703700
     13 O1          -1.6330    -1.4250     3.5140 os         1 YN4      -0.410900
     14 C1          -2.6200    -0.3820     3.7300 c3         1 YN4       0.212400
     15 C2          -3.8760    -0.9910     4.3560 c3         1 YN4       0.003900
     16 O           -0.2670     0.1120     2.6720 o          1 YN4      -0.560000
     17 C22          3.4400    -5.0220     2.0980 ca         1 YN4      -0.096300
     18 C21          4.6460    -4.7090     1.5510 ca         1 YN4      -0.180000
     19 C10          4.9500    -3.3960     1.1870 ca         1 YN4       0.161100
     20 C9           4.0310    -2.3880     1.3740 ca         1 YN4      -0.150000
     21 O2           6.1640    -3.1110     0.6430 os         1 YN4      -0.296900
     22 C11          7.0720    -4.2010     0.4750 c3         1 YN4       0.274700
     23 C12          8.3540    -3.6970    -0.1370 ca         1 YN4      -0.272600
     24 C20          9.3870    -3.2640     0.6690 ca         1 YN4       0.461200
     25 N3          10.5140    -2.8210     0.1440 nb         1 YN4      -0.629000
     26 C15         10.6990    -2.7740    -1.1660 ca         1 YN4       0.504200
     27 C14          9.6990    -3.1950    -2.0370 ca         1 YN4      -0.250300
     28 C13          8.5090    -3.6690    -1.5160 ca         1 YN4      -0.017000
     29 N1          11.9020    -2.3000    -1.6760 nh         1 YN4      -0.475300
     30 C19         12.8150    -1.9090    -0.5930 c3         1 YN4       0.146300
     31 C18         14.0930    -1.3190    -1.1940 c3         1 YN4       0.141300
     32 N2          14.7210    -2.3140    -2.0760 n7         1 YN4      -0.577200
     33 C17         13.8080    -2.7060    -3.1580 c3         1 YN4       0.141300
     34 C16         12.5300    -3.2940    -2.5570 c3         1 YN4       0.146300
     35 H61C        -0.3610    -0.8850     0.5100 hc         1 YN4       0.052700
     36 H62C        -0.3610     0.8840     0.5110 hc         1 YN4       0.052700
     37 H51C         1.8920     1.0110    -0.1460 h1         1 YN4       0.058700
     38 H52C         1.8920    -0.6320    -0.8030 h1         1 YN4       0.058700
     39 H9           4.2660    -1.3700     1.0890 ha         1 YN4       0.152000
     40 H22          3.2210    -6.0470     2.3740 ha         1 YN4       0.120000
     41 H24         -0.5810    -3.6810     3.4820 h4         1 YN4      -0.002900
     42 H11C        -2.3500     0.1950     4.6060 h1         1 YN4       0.014700
     43 H12C        -2.6520     0.2700     2.8650 h1         1 YN4       0.014700
     44 H21C        -3.6160    -1.4730     5.2910 hc         1 YN4       0.011033
     45 H22C        -4.3000    -1.7220     3.6790 hc         1 YN4       0.011033
     46 H23C        -4.6020    -0.2090     4.5430 hc         1 YN4       0.011033
     47 H21          5.3860    -5.4840     1.3930 ha         1 YN4       0.123000
     48 H111         6.6280    -4.9440    -0.1770 h1         1 YN4       0.004700
     49 H112         7.2830    -4.6470     1.4390 h1         1 YN4       0.004700
     50 H20          9.2790    -3.2850     1.7460 h4         1 YN4      -0.017900
     51 H13          7.7060    -4.0100    -2.1590 ha         1 YN4       0.110000
     52 H14          9.8600    -3.1520    -3.1080 ha         1 YN4       0.126000
     53 H191        13.0050    -2.7720     0.0340 h1         1 YN4       0.027200
     54 H192        12.3440    -1.1340    -0.0000 h1         1 YN4       0.027200
     55 H161        12.6750    -4.2130    -2.0010 h1         1 YN4       0.027200
     56 H162        11.8710    -3.4840    -3.3960 h1         1 YN4       0.027200
     57 H181        13.8530    -0.3780    -1.6750 h1         1 YN4       0.013700
     58 H182        14.8060    -1.1420    -0.3980 h1         1 YN4       0.013700
     59 H2          15.5070    -1.9020    -2.5370 hn         1 YN4       0.250800
     60 H171        14.2550    -3.5200    -3.7160 h1         1 YN4       0.013700
     61 H172        13.6620    -1.8590    -3.8180 h1         1 YN4       0.013700
@<TRIPOS>BOND
     1     1     2 3   
     2     2     3 1   
     3     3     4 1   
     4     3    35 1   
     5     3    36 1   
     6     4     5 1   
     7     4    37 1   
     8     4    38 1   
     9     5     6 1   
    10     6     7 ar  
    11     6    11 ar  
    12     7     8 ar  
    13     7    20 ar  
    14     8     9 ar  
    15     8    17 ar  
    16     9    10 ar  
    17    10    11 ar  
    18    10    41 1   
    19    11    12 1   
    20    12    13 1   
    21    12    16 2   
    22    13    14 1   
    23    14    15 1   
    24    14    42 1   
    25    14    43 1   
    26    15    44 1   
    27    15    45 1   
    28    15    46 1   
    29    17    18 ar  
    30    17    40 1   
    31    18    19 ar  
    32    18    47 1   
    33    19    20 ar  
    34    19    21 1   
    35    20    39 1   
    36    21    22 1   
    37    22    23 1   
    38    22    48 1   
    39    22    49 1   
    40    23    24 ar  
    41    23    28 ar  
    42    24    25 ar  
    43    24    50 1   
    44    25    26 ar  
    45    26    27 ar  
    46    26    29 1   
    47    27    28 ar  
    48    27    52 1   
    49    28    51 1   
    50    29    30 1   
    51    29    34 1   
    52    30    31 1   
    53    30    53 1   
    54    30    54 1   
    55    31    32 1   
    56    31    57 1   
    57    31    58 1   
    58    32    33 1   
    59    32    59 1   
    60    33    34 1   
    61    33    60 1   
    62    33    61 1   
    63    34    55 1   
    64    34    56 1   
@<TRIPOS>SUBSTRUCTURE
     1 YN4         1 TEMP              0 ****  ****    0 ROOT
