@<TRIPOS>MOLECULE
YNE
   55    59     1     0     0
SMALL
bcc


@<TRIPOS>ATOM
      1 C4          0.7730    1.6160    0.5300 c3        1 YNE     -0.041800
      2 C3          1.9050    0.7190    0.2530 cc        1 YNE     -0.071600
      3 N1          3.0330    0.5760    1.0800 na        1 YNE      0.092400
      4 C2          3.2600    1.3540    2.2720 c3        1 YNE      0.039600
      5 N           3.9160   -0.3040    0.5790 nc        1 YNE     -0.508800
      6 C5          2.1020   -0.1570   -0.8320 cd        1 YNE     -0.279600
      7 C1          3.3910   -0.7810   -0.5850 cd        1 YNE      0.335600
      8 C           4.0340   -1.7780   -1.4610 c3        1 YNE     -0.127400
      9 C6          1.2020   -0.4260   -1.9580 c3        1 YNE     -0.010400
     10 C7          1.2070    0.6680   -2.9600 cc        1 YNE      0.465700
     11 O           0.1950    1.6380   -2.8660 os        1 YNE     -0.399800
     12 C8          0.4720    2.5110   -3.9400 cc        1 YNE      0.547200
     13 N3          1.5650    2.0620   -4.5960 nd        1 YNE     -0.329000
     14 N2          2.0030    0.9610   -4.0070 nd        1 YNE     -0.348000
     15 C9         -0.3810    3.6410   -4.1440 cc        1 YNE     -0.197200
     16 S          -2.0670    3.5680   -3.9570 ss        1 YNE      0.084500
     17 C21        -2.2980    5.1740   -4.3990 ca        1 YNE     -0.068100
     18 C20        -3.4990    5.8910   -4.4870 ca        1 YNE     -0.103000
     19 C19        -3.4640    7.2280   -4.8460 ca        1 YNE     -0.107000
     20 C18        -2.2410    7.8720   -5.1160 ca        1 YNE     -0.138000
     21 C17        -1.0460    7.1790   -5.0370 ca        1 YNE     -0.077000
     22 C16        -1.0640    5.8200   -4.6870 ca        1 YNE     -0.115800
     23 C10         0.0430    4.9010   -4.5330 cd        1 YNE      0.167900
     24 O1          1.3600    5.2580   -4.6230 os        1 YNE     -0.309900
     25 C11         1.7820    5.7210   -5.9310 c3        1 YNE      0.145100
     26 C15         2.7630    6.8590   -5.6710 c3        1 YNE     -0.092900
     27 C14         3.4130    7.3000   -6.9810 c3        1 YNE      0.166800
     28 N4          4.0210    6.2070   -7.7120 n3        1 YNE     -0.821200
     29 C13         3.1360    5.0800   -7.9350 c3        1 YNE      0.166800
     30 C12         2.4660    4.5740   -6.6600 c3        1 YNE     -0.092900
     31 H41C        1.1270    2.6430    0.7960 hc        1 YNE      0.058033
     32 H42C        0.1270    1.6860   -0.3830 hc        1 YNE      0.058033
     33 H43C        0.1580    1.2230    1.3790 hc        1 YNE      0.058033
     34 H21C        2.2880    1.4520    2.8250 h1        1 YNE      0.058367
     35 H22C        3.6320    2.3770    1.9910 h1        1 YNE      0.058367
     36 H23C        4.0190    0.8540    2.9300 h1        1 YNE      0.058367
     37 H61C        1.5170   -1.3770   -2.4740 hc        1 YNE      0.079200
     38 H62C        0.1470   -0.5560   -1.5870 hc        1 YNE      0.079200
     39 HC1         3.3790   -2.6810   -1.5450 hc        1 YNE      0.054033
     40 HC2         4.1730   -1.3410   -2.4820 hc        1 YNE      0.054033
     41 HC3         5.0320   -2.0970   -1.0700 hc        1 YNE      0.054033
     42 H20        -4.4550    5.3920   -4.2710 ha        1 YNE      0.141000
     43 H19        -4.4000    7.8010   -4.9200 ha        1 YNE      0.137000
     44 H18        -2.2440    8.9380   -5.3880 ha        1 YNE      0.137000
     45 H17        -0.0830    7.6760   -5.2320 ha        1 YNE      0.143000
     46 H11         0.8960    6.0890   -6.5160 h1        1 YNE      0.049700
     47 H151        3.5430    6.5130   -4.9440 hc        1 YNE      0.068200
     48 H152        2.2290    7.7300   -5.2140 hc        1 YNE      0.068200
     49 H121        3.2230    4.1020   -5.9790 hc        1 YNE      0.068200
     50 H122        1.7170    3.7860   -6.9280 hc        1 YNE      0.068200
     51 H141        2.6300    7.8380   -7.5960 h1        1 YNE      0.028450
     52 H142        4.2280    8.0410   -6.7470 h1        1 YNE      0.028450
     53 H4          4.3820    6.5390   -8.5870 hn        1 YNE      0.364800
     54 H131        3.7600    4.2480   -8.3680 h1        1 YNE      0.028450
     55 H132        2.3260    5.3240   -8.6860 h1        1 YNE      0.028450
@<TRIPOS>BOND
     1    1    2 1   
     2    1   31 1   
     3    1   32 1   
     4    1   33 1   
     5    2    3 1   
     6    2    6 2   
     7    3    4 1   
     8    3    5 1   
     9    4   34 1   
    10    4   35 1   
    11    4   36 1   
    12    5    7 2   
    13    6    7 1   
    14    6    9 1   
    15    7    8 1   
    16    8   39 1   
    17    8   40 1   
    18    8   41 1   
    19    9   10 1   
    20    9   37 1   
    21    9   38 1   
    22   10   11 1   
    23   10   14 2   
    24   11   12 1   
    25   12   13 2   
    26   12   15 1   
    27   13   14 1   
    28   15   16 1   
    29   15   23 2   
    30   16   17 1   
    31   17   18 ar  
    32   17   22 ar  
    33   18   19 ar  
    34   18   42 1   
    35   19   20 ar  
    36   19   43 1   
    37   20   21 ar  
    38   20   44 1   
    39   21   22 ar  
    40   21   45 1   
    41   22   23 1   
    42   23   24 1   
    43   24   25 1   
    44   25   26 1   
    45   25   30 1   
    46   25   46 1   
    47   26   27 1   
    48   26   47 1   
    49   26   48 1   
    50   27   28 1   
    51   27   51 1   
    52   27   52 1   
    53   28   29 1   
    54   28   53 1   
    55   29   30 1   
    56   29   54 1   
    57   29   55 1   
    58   30   49 1   
    59   30   50 1   
@<TRIPOS>SUBSTRUCTURE
     1 YNE         1 TEMP              0 ****  ****    0 ROOT
