@<TRIPOS>MOLECULE
molecule
   60    65     1     0     0
SMALL
bcc


@<TRIPOS>ATOM
      1 C1           0.0000     0.0000     0.0000 cx         1 YNU       0.071800
      2 C3           1.5140     0.0000     0.0000 cx         1 YNU       0.064100
      3 C7          -2.1380    -0.0640    -1.2100 c2         1 YNU      -0.042400
      4 C8           0.1220    -0.4240     2.4360 c3         1 YNU      -0.071700
      5 C9          -2.0500    -0.7450     1.1880 c3         1 YNU      -0.104700
      6 C10          1.9650     0.2980     3.8330 c3         1 YNU       0.158800
      7 C11          2.2990     0.0000     1.3210 c3         1 YNU      -0.060400
      8 C12         -2.9210    -0.1310     0.0870 c3         1 YNU      -0.032200
      9 C14         -2.7060    -0.5590    -2.3090 ce         1 YNU      -0.223200
     10 C15         -1.6960    -2.1640     0.8240 c          1 YNU       0.632100
     11 C16          3.7050     1.1930     5.0110 c          1 YNU       0.735600
     12 C19          0.7940    -0.1010     4.7470 c3         1 YNU      -0.091400
     13 C20         -2.0010    -0.5180    -3.5930 c          1 YNU       0.573300
     14 C21          3.0380    -0.8020     3.8380 c3         1 YNU      -0.122400
     15 O28         -1.3650    -3.0400     1.7850 os         1 YNU      -0.434900
     16 C30         -1.0360    -4.3890     1.3620 c3         1 YNU       0.137700
     17 O2           0.7530    -1.1910    -0.2510 op         1 YNU      -0.376600
     18 C4          -0.7740     0.0830     1.3210 c3         1 YNU      -0.032700
     19 C5          -0.7720     0.5610    -1.2030 c3         1 YNU       0.002200
     20 C6           1.3850     0.4860     2.4360 c3         1 YNU      -0.060000
     21 O13          2.5970     1.5110     4.3140 os         1 YNU      -0.405900
     22 C17         -0.4600    -0.1730     3.8390 c3         1 YNU      -0.075400
     23 C18          0.0210     0.3100    -2.4740 c3         1 YNU      -0.073400
     24 O22         -1.7100    -2.5130    -0.3330 o          1 YNU      -0.522000
     25 O23          4.1550     1.7950     5.9570 o          1 YNU      -0.554500
     26 O24         -2.3180    -1.2400    -4.5150 o          1 YNU      -0.520100
     27 C25          4.2830    -0.0650     4.3860 c3         1 YNU      -0.203400
     28 C26         -0.8570     0.4680    -3.7160 c3         1 YNU      -0.177400
     29 C29         -0.9220     2.0740    -1.0300 c3         1 YNU      -0.083100
     30 H1           1.9900     0.4050    -0.8850 h1         1 YNU       0.094700
     31 H2           0.3860    -1.4650     2.2950 hc         1 YNU       0.089700
     32 H3          -2.5900    -0.7290     2.1260 hc         1 YNU       0.078700
     33 H4           3.1510     0.6640     1.2360 hc         1 YNU       0.065700
     34 H5           2.6350    -1.0060     1.5420 hc         1 YNU       0.065700
     35 H6          -3.8020    -0.7450    -0.0570 hc         1 YNU       0.062700
     36 H7          -3.2170     0.8700     0.3790 hc         1 YNU       0.062700
     37 H8          -3.6990    -0.9900    -2.2540 ha         1 YNU       0.152000
     38 H9           0.6510     0.6490     5.5160 hc         1 YNU       0.062700
     39 H10          0.9850    -1.0690     5.1930 hc         1 YNU       0.062700
     40 H11          2.7520    -1.6110     4.4990 hc         1 YNU       0.072700
     41 H12          3.2200    -1.1630     2.8330 hc         1 YNU       0.072700
     42 H16         -0.7400    -4.9760     2.2240 h1         1 YNU       0.050033
     43 H17         -0.2200    -4.3560     0.6510 h1         1 YNU       0.050033
     44 H18         -1.9020    -4.8430     0.8970 h1         1 YNU       0.050033
     45 H19         -1.0370     1.1160     1.5160 hc         1 YNU       0.082700
     46 H20         -1.0980    -0.9960     4.1380 hc         1 YNU       0.054200
     47 H21         -1.0010     0.7650     3.8630 hc         1 YNU       0.054200
     48 H22          0.4190    -0.6980    -2.4490 hc         1 YNU       0.061700
     49 H23          0.8390     1.0180    -2.5260 hc         1 YNU       0.061700
     50 H24          4.9590     0.1890     3.5790 hc         1 YNU       0.080700
     51 H25          4.7810    -0.6670     5.1360 hc         1 YNU       0.080700
     52 H26         -0.2780     0.2490    -4.6040 hc         1 YNU       0.068200
     53 H27         -1.2460     1.4780    -3.7630 hc         1 YNU       0.068200
     54 H28          0.0580     2.5350    -1.0130 hc         1 YNU       0.041700
     55 H29         -1.4350     2.2810    -0.0980 hc         1 YNU       0.041700
     56 H30         -1.4960     2.4770    -1.8550 hc         1 YNU       0.041700
     57 C27          0.9900     1.9460     2.1990 c3         1 YNU      -0.083100
     58 H13          0.8670     2.1190     1.1370 hc         1 YNU       0.047033
     59 H14          0.0570     2.1550     2.7090 hc         1 YNU       0.047033
     60 H15          1.7660     2.5970     2.5830 hc         1 YNU       0.047033
@<TRIPOS>BOND
     1    26    13 2
     2    13    28 1
     3    13     9 1
     4    28    23 1
     5     9     3 2
     6    23    19 1
     7     3    19 1
     8     3     8 1
     9    19    29 1
    10    19     1 1
    11    24    10 2
    12     8     5 1
    13    17     1 1
    14    17     2 1
    15     1     2 1
    16     1    18 1
    17    10     5 1
    18    10    15 1
    19     5    18 1
    20     2     7 1
    21    16    15 1
    22    18     4 1
    23     7    20 1
    24     4    20 1
    25     4    22 1
    26    20    57 1
    27    20     6 1
    28    22    12 1
    29     6    14 1
    30     6    12 1
    31     6    21 1
    32    14    27 1
    33    27    11 1
    34    21    11 1
    35    11    25 2
    36     2    30 1
    37     4    31 1
    38     5    32 1
    39     7    33 1
    40     7    34 1
    41     8    35 1
    42     8    36 1
    43     9    37 1
    44    12    38 1
    45    12    39 1
    46    14    40 1
    47    14    41 1
    48    57    58 1
    49    57    59 1
    50    57    60 1
    51    16    42 1
    52    16    43 1
    53    16    44 1
    54    18    45 1
    55    22    46 1
    56    22    47 1
    57    23    48 1
    58    23    49 1
    59    27    50 1
    60    27    51 1
    61    28    52 1
    62    28    53 1
    63    29    54 1
    64    29    55 1
    65    29    56 1
@<TRIPOS>SUBSTRUCTURE
     1 YNU         1 TEMP              0 ****  ****    0 ROOT
