@<TRIPOS>MOLECULE
molecule
   35    37     1     0     0
SMALL
bcc


@<TRIPOS>ATOM
      1 C10          0.0000     0.0000     0.0000 c          1 YP6       0.644100
      2 C15         -5.0890     0.0120     3.1590 ca         1 YP6       0.398300
      3 C17         -5.5320     0.0190     5.5120 ca         1 YP6      -0.099000
      4 C21         -4.5190     0.0170     0.7480 cc         1 YP6      -0.179400
      5 C01          4.7540     0.0250    -3.7010 ca         1 YP6      -0.044000
      6 C02          3.4230     0.0220    -3.3280 ca         1 YP6      -0.196000
      7 C03          3.0790     0.0130    -1.9840 ca         1 YP6       0.300100
      8 C04          4.0730     0.0080    -1.0160 ca         1 YP6      -0.352000
      9 C05          5.4050     0.0120    -1.3930 ca         1 YP6       0.186900
     10 C06          5.7440     0.0200    -2.7360 ca         1 YP6      -0.232000
     11 F07          6.3730     0.0070    -0.4520 f          1 YP6      -0.142900
     12 O08          1.9840     0.0070    -1.3480 os         1 YP6      -0.411900
     13 C09          1.5080     0.0000     0.0000 c3         1 YP6       0.182400
     14 N11         -0.6730     0.0000     1.1670 ns         1 YP6      -0.518400
     15 C12         -2.0630     0.0050     1.1670 cc         1 YP6       0.562300
     16 N13         -2.8120     0.0050     2.2250 nd         1 YP6      -0.730000
     17 C14         -4.1240     0.0120     2.0340 cd         1 YP6       0.329300
     18 C16         -4.6190     0.0120     4.4720 ca         1 YP6      -0.218300
     19 C18         -6.8860     0.0260     5.2050 ca         1 YP6      -0.254300
     20 C19         -7.2820     0.0210     3.8810 ca         1 YP6       0.421200
     21 N20         -6.3920     0.0200     2.9090 nb         1 YP6      -0.692000
     22 S22         -3.0810     0.0140    -0.2700 ss         1 YP6      -0.113300
     23 O23         -0.6070     0.0060    -1.0510 o          1 YP6      -0.540100
     24 H1          -5.1970     0.0210     6.5420 ha         1 YP6       0.138000
     25 H2          -5.5440     0.0230     0.3980 h4         1 YP6       0.201000
     26 H4           2.6490     0.0260    -4.0850 ha         1 YP6       0.150000
     27 H5           3.8070     0.0020     0.0340 ha         1 YP6       0.139000
     28 H6           6.7870     0.0220    -3.0300 ha         1 YP6       0.146000
     29 H7           1.8690    -0.8870     0.5060 h1         1 YP6       0.059700
     30 H8           1.8690     0.8820     0.5150 h1         1 YP6       0.059700
     31 H9          -0.1730    -0.0310     2.0340 hn         1 YP6       0.342500
     32 H10         -3.5550     0.0060     4.6750 ha         1 YP6       0.157000
     33 H11         -7.6260     0.0290     5.9970 ha         1 YP6       0.137000
     34 H12         -8.3380     0.0270     3.6390 h4         1 YP6       0.024100
     35 H3           5.0210     0.0310    -4.7510 ha         1 YP6       0.144000
@<TRIPOS>BOND
     1    18     3 ar
     2    18     2 ar
     3     3    19 ar
     4     4    22 1
     5     4    17 2
     6    22    15 1
     7    17     2 1
     8    17    16 1
     9     2    21 ar
    10    19    20 ar
    11    15    16 2
    12    15    14 1
    13     6     5 ar
    14     6     7 ar
    15    21    20 ar
    16    13    12 1
    17    13     1 1
    18    12     7 1
    19     5    10 ar
    20     7     8 ar
    21    14     1 1
    22     1    23 2
    23    10     9 ar
    24     8     9 ar
    25     9    11 1
    26     3    24 1
    27     4    25 1
    28     5    35 1
    29     6    26 1
    30     8    27 1
    31    10    28 1
    32    13    29 1
    33    13    30 1
    34    14    31 1
    35    18    32 1
    36    19    33 1
    37    20    34 1
@<TRIPOS>SUBSTRUCTURE
     1 YP6         1 TEMP              0 ****  ****    0 ROOT
