@<TRIPOS>MOLECULE
YP6
   35    37     1     0     0
SMALL
bcc


@<TRIPOS>ATOM
      1 C10          0.0000     0.0000     0.0000 c          1 YP6       0.521100
      2 C15         -5.0890     0.0120     3.1590 ca         1 YP6       0.342300
      3 C17         -5.5320     0.0190     5.5120 ca         1 YP6      -0.073000
      4 C21         -4.5190     0.0170     0.7480 cc         1 YP6      -0.098400
      5 C01          4.7540     0.0250    -3.7010 ca         1 YP6      -0.009000
      6 C02          3.4230     0.0220    -3.3280 ca         1 YP6      -0.170000
      7 C03          3.0790     0.0130    -1.9840 ca         1 YP6       0.295100
      8 C04          4.0730     0.0080    -1.0160 ca         1 YP6      -0.347000
      9 C05          5.4050     0.0120    -1.3930 ca         1 YP6       0.166900
     10 C06          5.7440     0.0200    -2.7360 ca         1 YP6      -0.206000
     11 F07          6.3730     0.0070    -0.4520 f          1 YP6      -0.132900
     12 O08          1.9840     0.0070    -1.3480 os         1 YP6      -0.354900
     13 C09          1.5080     0.0000     0.0000 c3         1 YP6       0.239400
     14 N11         -0.6730     0.0000     1.1670 ns         1 YP6      -0.053400
     15 C12         -2.0630     0.0050     1.1670 cc         1 YP6       0.410300
     16 N13         -2.8120     0.0050     2.2250 nd         1 YP6      -0.605000
     17 C14         -4.1240     0.0120     2.0340 cd         1 YP6       0.279300
     18 C16         -4.6190     0.0120     4.4720 ca         1 YP6      -0.190300
     19 C18         -6.8860     0.0260     5.2050 ca         1 YP6      -0.220300
     20 C19         -7.2820     0.0210     3.8810 ca         1 YP6       0.402200
     21 N20         -6.3920     0.0200     2.9090 nb         1 YP6      -0.574000
     22 S22         -3.0810     0.0140    -0.2700 ss         1 YP6      -0.241300
     23 O23         -0.6070     0.0060    -1.0510 o          1 YP6      -0.566100
     24 H1          -5.1970     0.0210     6.5420 ha         1 YP6       0.108000
     25 H2          -5.5440     0.0230     0.3980 h4         1 YP6       0.176000
     26 H4           2.6490     0.0260    -4.0850 ha         1 YP6       0.122000
     27 H5           3.8070     0.0020     0.0340 ha         1 YP6       0.131000
     28 H6           6.7870     0.0220    -3.0300 ha         1 YP6       0.122000
     29 H7           1.8690    -0.8870     0.5060 h1         1 YP6       0.011200
     30 H8           1.8690     0.8820     0.5150 h1         1 YP6       0.011200
     31 H9          -0.1730    -0.0310     2.0340 hn         1 YP6       0.173500
     32 H10         -3.5550     0.0060     4.6750 ha         1 YP6       0.129000
     33 H11         -7.6260     0.0290     5.9970 ha         1 YP6       0.112000
     34 H12         -8.3380     0.0270     3.6390 h4         1 YP6      -0.019900
     35 H3           5.0210     0.0310    -4.7510 ha         1 YP6       0.107000
@<TRIPOS>BOND
     1     1    13 1   
     2     1    14 1   
     3     1    23 2   
     4     2    17 1   
     5     2    18 ar  
     6     2    21 ar  
     7     3    18 ar  
     8     3    19 ar  
     9     3    24 1   
    10     4    17 2   
    11     4    22 1   
    12     4    25 1   
    13     5     6 ar  
    14     5    10 ar  
    15     5    35 1   
    16     6     7 ar  
    17     6    26 1   
    18     7     8 ar  
    19     7    12 1   
    20     8     9 ar  
    21     8    27 1   
    22     9    10 ar  
    23     9    11 1   
    24    10    28 1   
    25    12    13 1   
    26    13    29 1   
    27    13    30 1   
    28    14    15 1   
    29    14    31 1   
    30    15    16 2   
    31    15    22 1   
    32    16    17 1   
    33    18    32 1   
    34    19    20 ar  
    35    19    33 1   
    36    20    21 ar  
    37    20    34 1   
@<TRIPOS>SUBSTRUCTURE
     1 YP6         1 TEMP              0 ****  ****    0 ROOT
