@<TRIPOS>MOLECULE
YPA
   54    57     1     0     0
SMALL
bcc


@<TRIPOS>ATOM
      1 C1          0.1330   -0.0780    0.0820 ca        1 YPA     -0.165500
      2 C2          1.5100    0.0450   -0.0980 ca        1 YPA     -0.080000
      3 C3          2.3290    0.1200    1.0210 cp        1 YPA     -0.079000
      4 C4          1.7470    0.0800    2.3440 ca        1 YPA     -0.002700
      5 C5          0.3640   -0.0490    2.5080 ca        1 YPA     -0.151500
      6 C6         -0.4250   -0.1260    1.3630 ca        1 YPA     -0.103000
      7 C11         3.7640    0.2360    1.2030 cp        1 YPA     -0.079000
      8 C12         3.9970    0.2600    2.6310 ca        1 YPA     -0.002700
      9 N13         2.7620    0.2360    3.3150 na        1 YPA     -0.068300
     10 C14         4.8340    0.3170    0.3250 ca        1 YPA     -0.080000
     11 C15         6.1260    0.4140    0.8410 ca        1 YPA     -0.165500
     12 C16         6.3490    0.4310    2.2210 ca        1 YPA     -0.103000
     13 C17         5.2990    0.3560    3.1340 ca        1 YPA     -0.151500
     14 C22         2.6060   -0.0860    4.7020 c3        1 YPA      0.029300
     15 C23         2.5280   -1.5900    5.0240 c3        1 YPA      0.102400
     16 O26         2.5600   -1.6550    6.4500 os        1 YPA     -0.350900
     17 C29         1.9350   -2.7720    6.9970 ca        1 YPA      0.079100
     18 C30         1.4070   -2.6020    8.2830 ca        1 YPA     -0.177000
     19 C31         0.8210   -3.6930    8.9220 ca        1 YPA     -0.105500
     20 C32         0.7480   -4.9390    8.2910 ca        1 YPA     -0.066300
     21 C33         1.2790   -5.0890    7.0010 ca        1 YPA     -0.105500
     22 C34         1.8760   -4.0140    6.3510 ca        1 YPA     -0.177000
     23 C39         0.1370   -6.1110    8.9730 c3        1 YPA     -0.037100
     24 C40        -1.1870   -6.5260    8.3320 c3        1 YPA      0.029100
     25 C43        -1.0060   -7.5160    7.1480 c         1 YPA      0.894600
     26 O44         0.1440   -7.9810    6.9090 o         1 YPA     -0.836300
     27 O45        -2.0290   -7.7750    6.4550 o         1 YPA     -0.836300
     28 O47        -1.9530   -7.0780    9.4130 os        1 YPA     -0.448600
     29 C49        -3.1450   -7.7310    8.9850 c3        1 YPA      0.133400
     30 C50        -4.0110   -7.9130   10.2140 c3        1 YPA     -0.095100
     31 H1         -0.5240   -0.1440   -0.7970 ha        1 YPA      0.127000
     32 H2          1.9450    0.0780   -1.1060 ha        1 YPA      0.130500
     33 H5         -0.0880   -0.0980    3.5090 ha        1 YPA      0.142000
     34 H6         -1.5150   -0.2360    1.4730 ha        1 YPA      0.130000
     35 H14         4.6630    0.3020   -0.7610 ha        1 YPA      0.130500
     36 H15         6.9820    0.4750    0.1540 ha        1 YPA      0.127000
     37 H16         7.3800    0.5020    2.5990 ha        1 YPA      0.130000
     38 H17         5.4930    0.3660    4.2150 ha        1 YPA      0.142000
     39 H221        3.4740    0.3570    5.2670 h1        1 YPA      0.070200
     40 H222        1.6590    0.4040    5.0680 h1        1 YPA      0.070200
     41 H231        3.4160   -2.1450    4.6220 h1        1 YPA      0.052700
     42 H232        1.5860   -2.0390    4.6140 h1        1 YPA      0.052700
     43 H30         1.4670   -1.6220    8.7740 ha        1 YPA      0.128000
     44 H31         0.4060   -3.5670    9.9330 ha        1 YPA      0.164000
     45 H33         1.1990   -6.0850    6.5150 ha        1 YPA      0.164000
     46 H34         2.2940   -4.1420    5.3430 ha        1 YPA      0.128000
     47 H391       -0.0330   -5.8840   10.0590 hc        1 YPA      0.060700
     48 H392        0.8400   -6.9870    8.9030 hc        1 YPA      0.060700
     49 H40        -1.7420   -5.6240    7.9480 h1        1 YPA      0.021700
     50 H491       -3.6660   -7.1140    8.2060 h1        1 YPA      0.049700
     51 H492       -2.8750   -8.7200    8.5260 h1        1 YPA      0.049700
     52 H501       -4.2850   -6.9240   10.6520 hc        1 YPA      0.023367
     53 H502       -3.4660   -8.4990   10.9910 hc        1 YPA      0.023367
     54 H503       -4.9420   -8.4580    9.9330 hc        1 YPA      0.023367
@<TRIPOS>BOND
     1    1    2 ar  
     2    1    6 ar  
     3    1   31 1   
     4    2    3 ar  
     5    2   32 1   
     6    3    4 ar  
     7    3    7 1   
     8    4    5 ar  
     9    4    9 1   
    10    5    6 ar  
    11    5   33 1   
    12    6   34 1   
    13    7    8 ar  
    14    7   10 ar  
    15    8    9 1   
    16    8   13 ar  
    17    9   14 1   
    18   10   11 ar  
    19   10   35 1   
    20   11   12 ar  
    21   11   36 1   
    22   12   13 ar  
    23   12   37 1   
    24   13   38 1   
    25   14   15 1   
    26   14   39 1   
    27   14   40 1   
    28   15   16 1   
    29   15   41 1   
    30   15   42 1   
    31   16   17 1   
    32   17   18 ar  
    33   17   22 ar  
    34   18   19 ar  
    35   18   43 1   
    36   19   20 ar  
    37   19   44 1   
    38   20   21 ar  
    39   20   23 1   
    40   21   22 ar  
    41   21   45 1   
    42   22   46 1   
    43   23   24 1   
    44   23   47 1   
    45   23   48 1   
    46   24   25 1   
    47   24   28 1   
    48   24   49 1   
    49   25   26 1   
    50   25   27 1   
    51   28   29 1   
    52   29   30 1   
    53   29   50 1   
    54   29   51 1   
    55   30   52 1   
    56   30   53 1   
    57   30   54 1   
@<TRIPOS>SUBSTRUCTURE
     1 YPA         1 TEMP              0 ****  ****    0 ROOT
