@<TRIPOS>MOLECULE
molecule
   54    57     1     0     0
SMALL
bcc


@<TRIPOS>ATOM
      1 C1           0.0000     0.0000     0.0000 ca         1 YPA      -0.166500
      2 C2           1.3780     0.0000     0.0000 ca         1 YPA      -0.074000
      3 C3           2.0700     0.0000     1.2090 cp         1 YPA      -0.091000
      4 C4           1.3660    -0.0010     2.4210 ca         1 YPA       0.011800
      5 C5          -0.0260    -0.0010     2.4010 ca         1 YPA      -0.153500
      6 C6          -0.6990     0.0010     1.1980 ca         1 YPA      -0.097500
      7 C11          3.5020    -0.0010     1.5570 cp         1 YPA      -0.091000
      8 C12          3.5710     0.0030     2.9570 ca         1 YPA       0.011800
      9 N13          2.2820    -0.0030     3.4580 na         1 YPA      -0.079300
     10 C14          4.6710    -0.0030     0.8010 ca         1 YPA      -0.074000
     11 C15          5.8960    -0.0040     1.4340 ca         1 YPA      -0.166500
     12 C16          5.9660    -0.0050     2.8180 ca         1 YPA      -0.097500
     13 C17          4.8170    -0.0030     3.5780 ca         1 YPA      -0.153500
     14 C22          1.9360    -0.0040     4.8810 c3         1 YPA       0.047300
     15 C23          1.8140    -1.4460     5.3760 c3         1 YPA       0.096400
     16 O26          1.4770    -1.4470     6.7640 os         1 YPA      -0.313900
     17 C29          1.3830    -2.7470     7.1440 ca         1 YPA       0.084100
     18 C30          1.0640    -3.0660     8.4560 ca         1 YPA      -0.195000
     19 C31          0.9710    -4.3890     8.8410 ca         1 YPA      -0.088000
     20 C32          1.1940    -5.3960     7.9200 ca         1 YPA      -0.082300
     21 C33          1.5170    -5.0800     6.6140 ca         1 YPA      -0.088000
     22 C34          1.6070    -3.7590     6.2220 ca         1 YPA      -0.195000
     23 C39          1.0900    -6.8390     8.3420 c3         1 YPA      -0.021100
     24 C40         -0.3470    -7.3260     8.1440 c3         1 YPA       0.028100
     25 C43         -0.4500    -8.7690     8.5670 c          1 YPA       0.872600
     26 O44          0.2960    -9.7020     7.9550 o          1 YPA      -0.838300
     27 O45         -1.2040    -9.0850     9.4560 o          1 YPA      -0.838300
     28 O47         -1.2310    -6.5340     8.9370 os         1 YPA      -0.405600
     29 C49         -2.4840    -6.5010     8.2500 c3         1 YPA       0.135400
     30 C50         -3.4830    -5.6630     9.0510 c3         1 YPA      -0.093100
     31 H1          -0.5400     0.0010    -0.9390 ha         1 YPA       0.127000
     32 H2           1.9210    -0.0010    -0.9370 ha         1 YPA       0.128000
     33 H5          -0.5810    -0.0000     3.3320 ha         1 YPA       0.133500
     34 H6          -1.7820     0.0010     1.1880 ha         1 YPA       0.130500
     35 H14          4.6190    -0.0020    -0.2810 ha         1 YPA       0.128000
     36 H15          6.8070    -0.0040     0.8470 ha         1 YPA       0.127000
     37 H16          6.9330    -0.0050     3.3070 ha         1 YPA       0.130500
     38 H17          4.8830    -0.0040     4.6590 ha         1 YPA       0.133500
     39 H221         2.7100     0.5060     5.4410 h1         1 YPA       0.067200
     40 H222         0.9910     0.5080     5.0230 h1         1 YPA       0.067200
     41 H231         2.7580    -1.9570     5.2330 h1         1 YPA       0.053700
     42 H232         1.0390    -1.9550     4.8160 h1         1 YPA       0.053700
     43 H30          0.9410    -2.2780     9.1900 ha         1 YPA       0.128500
     44 H31          0.7550    -4.6390     9.8730 ha         1 YPA       0.142000
     45 H33          1.7160    -5.8710     5.9000 ha         1 YPA       0.142000
     46 H34          1.8020    -3.5140     5.1850 ha         1 YPA       0.128500
     47 H391         1.3620    -6.9290     9.3870 hc         1 YPA       0.064700
     48 H392         1.7610    -7.4400     7.7410 hc         1 YPA       0.064700
     49 H40         -0.6190    -7.2360     7.1000 h1         1 YPA       0.029700
     50 H491        -2.3470    -6.0610     7.2700 h1         1 YPA       0.024200
     51 H492        -2.8630    -7.5100     8.1430 h1         1 YPA       0.024200
     52 H501        -4.4610    -5.7290     8.5890 hc         1 YPA       0.029033
     53 H502        -3.5370    -6.0380    10.0660 hc         1 YPA       0.029033
     54 H503        -3.1590    -4.6300     9.0640 hc         1 YPA       0.029033
@<TRIPOS>BOND
     1     1     2 ar
     2     1     6 ar
     3     1    31 1
     4     2     3 ar
     5     2    32 1
     6     3     4 ar
     7     3     7 1
     8     4     5 ar
     9     4     9 1
    10     5     6 ar
    11     5    33 1
    12     6    34 1
    13     7     8 ar
    14     7    10 ar
    15     8     9 1
    16     8    13 ar
    17     9    14 1
    18    10    11 ar
    19    10    35 1
    20    11    12 ar
    21    11    36 1
    22    12    13 ar
    23    12    37 1
    24    13    38 1
    25    14    15 1
    26    14    39 1
    27    14    40 1
    28    15    16 1
    29    15    41 1
    30    15    42 1
    31    16    17 1
    32    17    18 ar
    33    17    22 ar
    34    18    19 ar
    35    18    43 1
    36    19    20 ar
    37    19    44 1
    38    20    21 ar
    39    20    23 1
    40    21    22 ar
    41    21    45 1
    42    22    46 1
    43    23    24 1
    44    23    47 1
    45    23    48 1
    46    24    25 1
    47    24    28 1
    48    24    49 1
    49    25    26 1
    50    25    27 1
    51    28    29 1
    52    29    30 1
    53    29    50 1
    54    29    51 1
    55    30    52 1
    56    30    53 1
    57    30    54 1
@<TRIPOS>SUBSTRUCTURE
     1 YPA         1 TEMP              0 ****  ****    0 ROOT
