@<TRIPOS>MOLECULE
molecule
   47    50     1     0     0
SMALL
bcc


@<TRIPOS>ATOM
      1 OAY          0.0000     0.0000     0.0000 os         1 YPE      -0.567200
      2 CAU          4.5850    -0.0020    -1.4220 cg         1 YPE      -0.210000
      3 CAT         -1.0320     3.7120    -7.6930 c3         1 YPE       0.080400
      4 CAS          0.5440     3.1490    -8.0240 c3         1 YPE       0.014700
      5 CAR          1.4420     3.7000    -6.9680 c1         1 YPE      -0.165100
      6 CAN          6.1170     0.0250    -1.6640 ca         1 YPE      -0.024000
      7 CAP          6.9240     0.6380    -1.0210 ca         1 YPE      -0.089000
      8 CAO          7.3690     1.9050    -1.3920 ca         1 YPE      -0.111000
      9 CAM          5.5790     0.9480    -3.1340 ca         1 YPE      -0.078000
     10 CAL          4.6290     0.1360    -3.8210 ca         1 YPE      -0.001000
     11 CAK          2.7060     2.6320    -2.9920 ca         1 YPE       0.050000
     12 CAD          3.5730     3.7570    -3.5370 ca         1 YPE      -0.169000
     13 CAF          5.1450     3.4240    -3.4620 ca         1 YPE       0.149000
     14 CAI          6.0890     2.1180    -3.3400 ca         1 YPE      -0.062000
     15 CAJ          7.0710     2.5330    -2.2980 ca         1 YPE       0.050000
     16 CAH          7.5660     3.7090    -2.5280 ca         1 YPE      -0.180000
     17 CAG          7.3490     4.8460    -3.7200 ca         1 YPE      -0.170000
     18 CAE          5.7740     4.5900    -4.2590 ca         1 YPE      -0.126000
     19 CAB          5.4140     5.5010    -5.3070 ca         1 YPE      -0.153000
     20 CAA          3.9750     5.0470    -5.5900 ca         1 YPE      -0.188000
     21 CAC          3.2820     4.0930    -5.0270 ca         1 YPE       0.050000
     22 CAQ          2.3000     3.8090    -6.1290 cg         1 YPE      -0.066000
     23 CAV          3.4110     0.0000    -1.4430 c1         1 YPE       0.005900
     24 CAW          1.9390     0.0000    -1.4430 c3         1 YPE       0.243700
     25 CAX          1.4290     0.0000     0.0000 c3         1 YPE       0.000400
     26 OAZ         -1.8110     2.9790    -8.4880 oh         1 YPE      -0.577800
     27 OBB         -0.6320    -1.3760     2.1490 o          1 YPE      -0.826167
     28 PBA         -0.8770     0.0000     1.3490 p5         1 YPE       1.203900
     29 OBD         -0.4750     1.1430     2.2000 o          1 YPE      -0.826167
     30 H1          -1.1550     4.6940    -7.2510 h1         1 YPE       0.028700
     31 H2          -1.1890     3.1040    -6.8110 h1         1 YPE       0.028700
     32 H3           0.4510     3.8320    -8.8600 hc         1 YPE       0.064700
     33 H4           0.6130     2.1630    -8.4660 hc         1 YPE       0.064700
     34 H5           6.9220     0.2330    -0.0160 ha         1 YPE       0.135000
     35 H6           7.6600     2.4150    -0.4830 ha         1 YPE       0.122000
     36 H7           4.9090    -0.8900    -4.0310 ha         1 YPE       0.077000
     37 H8           1.8690     2.6970    -3.6780 ha         1 YPE      -0.005000
     38 H9           8.5160     4.2170    -2.4110 ha         1 YPE       0.113000
     39 H10          7.7260     5.8590    -3.6420 ha         1 YPE       0.135000
     40 H11          6.0080     6.3740    -5.5470 ha         1 YPE       0.159000
     41 H12          3.7450     5.9280    -6.1760 ha         1 YPE       0.114000
     42 H13          1.7740    -0.9110    -2.0050 hc         1 YPE       0.024200
     43 H14          1.5920     0.9180    -1.9010 hc         1 YPE       0.024200
     44 H15          1.7820    -0.6600    -0.7830 h1         1 YPE       0.042200
     45 H16          1.7630    -0.5670     0.8600 h1         1 YPE       0.042200
     46 H17         -2.6330     2.9210    -8.0290 ho         1 YPE       0.400000
     47 OP3         -2.4380     0.1320     0.9760 o          1 YPE      -0.826167
@<TRIPOS>BOND
     1    19    20 ar
     2    19    18 ar
     3    20    21 ar
     4    17    18 ar
     5    17    16 ar
     6    18    13 ar
     7    26     3 1
     8     3     4 1
     9    16    15 ar
    10    21    22 1
    11    21    12 ar
    12    22     5 3
    13     5     4 1
    14    13    12 ar
    15    13    14 ar
    16    12    11 ar
    17    15    14 ar
    18    15     8 ar
    19    14     9 ar
    20     8     7 ar
    21    11    10 ar
    22     9    10 ar
    23     9     6 ar
    24     7     6 ar
    25     6     2 1
    26     2    23 3
    27    23    24 1
    28    24    25 1
    29     1    28 1
    30     1    25 1
    31    29    28 1
    32    28    27 1
    33     3    30 1
    34     3    31 1
    35     4    32 1
    36     4    33 1
    37     7    34 1
    38     8    35 1
    39    10    36 1
    40    11    37 1
    41    16    38 1
    42    17    39 1
    43    19    40 1
    44    20    41 1
    45    24    42 1
    46    24    43 1
    47    25    44 1
    48    25    45 1
    49    26    46 1
    50    28    47 1
@<TRIPOS>SUBSTRUCTURE
     1 YPE         1 TEMP              0 ****  ****    0 ROOT
