@<TRIPOS>MOLECULE
molecule
   45    47     1     0     0
SMALL
bcc


@<TRIPOS>ATOM
      1 OAY          0.0000     0.0000     0.0000 os         1 YPF      -0.569200
      2 CAU          4.5850     0.0130    -1.4570 cg         1 YPF      -0.251000
      3 CAT          4.8530    -9.8900     1.8260 c3         1 YPF       0.077400
      4 CAS          4.1810    -8.6000     1.2930 c3         1 YPF      -0.012300
      5 CAR          5.2230    -7.5810     0.7450 c1         1 YPF      -0.139100
      6 CAN          5.9140    -0.4280    -0.9860 ca         1 YPF       0.080000
      7 CAP          7.0330     0.3440    -1.8100 ca         1 YPF      -0.085000
      8 CAO          8.3770     0.0620    -1.5100 ca         1 YPF      -0.158000
      9 CAM          6.2830    -1.6810    -0.8500 ca         1 YPF      -0.103000
     10 CAD          6.9380    -4.3780    -0.3950 ca         1 YPF      -0.075000
     11 CAF          8.0880    -3.7010    -0.4160 ca         1 YPF       0.040000
     12 CAI          7.7820    -2.3950    -0.8610 ca         1 YPF      -0.047000
     13 CAJ          8.5830    -1.4170    -1.0290 ca         1 YPF      -0.039000
     14 CAH         10.0520    -1.9930    -0.6200 ca         1 YPF      -0.145000
     15 CAG         10.3080    -3.1100    -0.2400 ca         1 YPF      -0.112000
     16 CAE          9.3120    -4.2600    -0.0510 ca         1 YPF      -0.052000
     17 CAB          9.5590    -5.5220     0.3710 ca         1 YPF      -0.104000
     18 CAA          8.5790    -6.4060     0.4820 ca         1 YPF      -0.119000
     19 CAC          7.2690    -5.7720     0.0810 ca         1 YPF      -0.027000
     20 CAQ          6.0430    -6.9080     0.7530 cg         1 YPF      -0.154000
     21 CAV          3.4110    -0.0000    -1.4420 c1         1 YPF       0.016900
     22 CAW          1.9400     0.0010    -1.4420 c3         1 YPF      -0.090300
     23 CAX          1.4290     0.0000     0.0000 c3         1 YPF       0.251400
     24 OAZ          3.6850   -10.7510     1.7870 oh         1 YPF      -0.570800
     25 OBB         -0.6330    -1.3760     2.1480 o          1 YPF      -0.904167
     26 PBA         -0.8780     0.0000     1.3490 p5         1 YPF       1.171900
     27 OBD         -0.4750     1.1420     2.2000 o          1 YPF      -0.904167
     28 O1          -2.4380     0.1330     0.9760 o          1 YPF      -0.904167
     29 H1           5.1260   -10.3820     0.9010 h1         1 YPF       0.059700
     30 H2           5.6980    -9.7630     2.4930 h1         1 YPF       0.059700
     31 H3           3.5380    -8.7690     0.4380 hc         1 YPF       0.075700
     32 H4           3.6380    -7.9970     2.0100 hc         1 YPF       0.075700
     33 H5           6.8220     1.2890    -2.2970 ha         1 YPF       0.132000
     34 H6           9.2060     0.5510    -2.0080 ha         1 YPF       0.128000
     35 H7           5.4710    -2.3510    -0.5910 ha         1 YPF       0.127000
     36 H8           5.8920    -4.6120    -0.2380 ha         1 YPF       0.222000
     37 H9          10.7160    -1.2290    -1.0070 ha         1 YPF       0.122000
     38 H10         11.3560    -3.2920    -0.0340 ha         1 YPF       0.105000
     39 H11         10.5500    -5.6110     0.7980 ha         1 YPF       0.123000
     40 H12          8.6620    -7.3290     1.0430 ha         1 YPF       0.153000
     41 H13          1.3260     0.5980    -2.1060 hc         1 YPF       0.068200
     42 H14          1.6940    -1.0200    -1.7080 hc         1 YPF       0.068200
     43 H15          1.9250     0.8170     0.5100 h1         1 YPF       0.015700
     44 H16          1.7350    -0.9940     0.3020 h1         1 YPF       0.015700
     45 H17          4.0740   -11.3700     2.3820 ho         1 YPF       0.376000
@<TRIPOS>BOND
     1    27    26 1
     2    25    26 1
     3    26     1 1
     4     1    23 1
     5    23    22 1
     6    22    21 1
     7    21     2 3
     8     2     6 1
     9     7     6 ar
    10     7     8 ar
    11     6     9 ar
    12     8    13 ar
    13     9    12 ar
    14    13    12 ar
    15    13    14 ar
    16    12    11 ar
    17    14    15 ar
    18    11    10 ar
    19    11    16 ar
    20    15    16 ar
    21    10    19 ar
    22    16    17 ar
    23    19    20 1
    24    19    18 ar
    25    24     3 1
    26     3     4 1
    27    17    18 ar
    28    20     5 3
    29     5     4 1
    30    26    28 1
    31     3    29 1
    32     3    30 1
    33     4    31 1
    34     4    32 1
    35     7    33 1
    36     8    34 1
    37     9    35 1
    38    10    36 1
    39    14    37 1
    40    15    38 1
    41    17    39 1
    42    18    40 1
    43    22    41 1
    44    22    42 1
    45    23    43 1
    46    23    44 1
    47    24    45 1
@<TRIPOS>SUBSTRUCTURE
     1 YPF         1 TEMP              0 ****  ****    0 ROOT
