@<TRIPOS>MOLECULE
molecule
   51    53     1     0     0
SMALL
bcc


@<TRIPOS>ATOM
      1 C4           0.0000     0.0000     0.0000 cc         1 YPG       0.096800
      2 C5           1.3990     0.0000     0.0000 cd         1 YPG       0.228800
      3 C6           2.0760     0.0000     1.2430 c          1 YPG       0.654000
      4 C8           0.7580     0.0030    -2.0700 cc         1 YPG       0.451400
      5 N1           1.3380    -0.0000     2.3750 ns         1 YPG      -0.478400
      6 N3          -0.6640    -0.0010     1.1620 nc         1 YPG      -0.510100
      7 PBF         -1.8690     4.5860     0.1060 p5         1 YPG       1.114700
      8 OAJ         -2.4100     5.7300     1.1020 o          1 YPG      -0.863167
      9 OAE         -2.1640     3.1370     0.7430 o          1 YPG      -0.863167
     10 CAZ         -2.7190     4.7280    -1.5010 c3         1 YPG      -0.004100
     11 OAF         -4.1280     4.5690    -1.3100 oh         1 YPG      -0.603800
     12 CAN         -2.2060     3.6420    -2.4460 c3         1 YPG       0.080400
     13 OAT         -2.4680     2.3550    -1.8820 os         1 YPG      -0.316600
     14 CBA         -2.0240     1.2640    -2.6910 c3         1 YPG       0.107100
     15 CAO         -3.1500     0.7930    -3.6360 c3         1 YPG       0.062000
     16 NBC         -3.0920    -0.6750    -3.6880 n          1 YPG      -0.495800
     17 CAU         -3.9220    -1.4700    -4.3900 c          1 YPG       0.674100
     18 OAB         -3.7800    -2.6740    -4.3590 o          1 YPG      -0.644100
     19 CAL         -5.0280    -0.8630    -5.2150 c3         1 YPG      -0.106400
     20 CAM         -5.8180    -1.9750    -5.9070 c3         1 YPG      -0.236600
     21 PBE         -7.1550    -1.2420    -6.9050 p5         1 YPG       1.057700
     22 OAG         -8.0670    -2.4140    -7.5270 o          1 YPG      -0.888167
     23 OAH         -6.5180    -0.3670    -8.0960 o          1 YPG      -0.888167
     24 OAD         -7.9900    -0.3710    -6.0460 o          1 YPG      -0.888167
     25 CAP         -1.9730    -1.1330    -2.8440 c3         1 YPG       0.089000
     26 CBB         -1.7550     0.0090    -1.8200 c3         1 YPG       0.008000
     27 N9          -0.3800     0.0050    -1.3150 na         1 YPG      -0.121900
     28 C2          -0.0230    -0.0010     2.3090 cd         1 YPG       0.329800
     29 O6           3.2940    -0.0010     1.2900 o          1 YPG      -0.642500
     30 N7           1.8010     0.0010    -1.2930 nd         1 YPG      -0.653000
     31 H1           0.7870     0.0020    -3.1530 h5         1 YPG       0.081100
     32 H2           1.7940     0.0000     3.2660 hn         1 YPG       0.307500
     33 H3          -0.5620    -0.8060     4.0440 hn         1 YPG       0.458800
     34 H4          -0.6300     0.8430     4.0020 hn         1 YPG       0.458800
     35 H7          -2.5210     5.7030    -1.9290 h1         1 YPG       0.038700
     36 H8          -4.5720     5.3580    -1.5710 ho         1 YPG       0.349000
     37 H9          -2.2840     4.2240    -3.3560 h1         1 YPG       0.032700
     38 H10         -1.1320     3.6670    -2.3100 h1         1 YPG       0.032700
     39 H11         -1.1400     1.5320    -3.2560 h1         1 YPG       0.032700
     40 H12         -4.0920     1.3270    -3.6030 h1         1 YPG       0.077700
     41 H13         -2.3660     1.1750    -4.2790 h1         1 YPG       0.077700
     42 H14         -4.6020    -0.2040    -5.9620 hc         1 YPG       0.075200
     43 H15         -5.6910    -0.2980    -4.5710 hc         1 YPG       0.075200
     44 H16         -6.2440    -2.6340    -5.1600 hc         1 YPG       0.032200
     45 H17         -5.1550    -2.5410    -6.5520 hc         1 YPG       0.032200
     46 H20         -1.0830    -1.2740    -3.4450 h1         1 YPG       0.039200
     47 H21         -2.2390    -2.0500    -2.3320 h1         1 YPG       0.039200
     48 H22         -2.4720    -0.0580    -1.0110 h1         1 YPG       0.128700
     49 N2          -0.7460    -0.0020     3.4770 nz         1 YPG      -0.718600
     50 H23         -1.6330    -0.0510     3.0160 hn         1 YPG       0.458800
     51 OAI         -0.6590     5.0720    -0.5930 o          1 YPG      -0.863167
@<TRIPOS>BOND
     1     8     7 1
     2    51     7 1
     3    11    10 1
     4     7    10 1
     5     7     9 1
     6    10    12 1
     7    12    13 1
     8    13    14 1
     9    14    15 1
    10    14    26 1
    11    15    16 1
    12    23    21 1
    13     4    30 2
    14     4    27 1
    15    30     2 1
    16    26    27 1
    17    26    25 1
    18    27     1 1
    19    19    20 1
    20    19    17 1
    21    16    17 1
    22    16    25 1
    23     2     1 2
    24     2     3 1
    25     1     6 1
    26    20    21 1
    27    21    22 1
    28    21    24 1
    29    17    18 2
    30    29     3 2
    31     3     5 1
    32     6    28 2
    33     5    28 1
    34    28    49 1
    35     4    31 1
    36     5    32 1
    37    49    33 1
    38    49    34 1
    39    10    35 1
    40    11    36 1
    41    12    37 1
    42    12    38 1
    43    14    39 1
    44    15    40 1
    45    15    41 1
    46    19    42 1
    47    19    43 1
    48    20    44 1
    49    20    45 1
    50    25    46 1
    51    25    47 1
    52    26    48 1
    53    50    49 1
@<TRIPOS>SUBSTRUCTURE
     1 YPG         1 TEMP              0 ****  ****    0 ROOT
