@<TRIPOS>MOLECULE
YPH
   83    88     1     0     0
SMALL
bcc


@<TRIPOS>ATOM
      1 C38        -0.0300    0.5370   -0.4710 c3        1 YPH      0.176300
      2 C39         1.4940    0.4630   -0.4880 c3        1 YPH     -0.095400
      3 C40         2.0260   -0.2060    0.7760 c3        1 YPH      0.142100
      4 O43         3.4400   -0.0890    0.8490 oh        1 YPH     -0.594800
      5 C41         1.4720    0.4850    2.0170 c3        1 YPH     -0.095400
      6 C42        -0.0510    0.5420    1.9600 c3        1 YPH      0.176300
      7 N35        -0.5550    1.1580    0.7390 n3        1 YPH     -0.748600
      8 C36        -2.0000    1.2910    0.7300 c3        1 YPH      0.173800
      9 C37        -2.4740    2.5870    1.4050 c3        1 YPH      0.119400
     10 O34        -2.2790    3.6260    0.4220 os        1 YPH     -0.288900
     11 C9         -2.3740    4.9100    0.8430 ca        1 YPH      0.240100
     12 C8         -2.8010    5.3140    2.1250 ca        1 YPH     -0.206000
     13 C7         -2.8580    6.6600    2.4360 ca        1 YPH     -0.011000
     14 C10        -2.0190    5.8860   -0.1280 ca        1 YPH     -0.206000
     15 C11        -2.0780    7.2230    0.1950 ca        1 YPH     -0.011000
     16 C6         -2.4940    7.6390    1.4840 ca        1 YPH     -0.196800
     17 C2         -2.5260    9.0220    1.8060 cc        1 YPH      0.291900
     18 O3         -2.9740    9.3500    3.1080 os        1 YPH     -0.278400
     19 C1         -2.1850   10.1770    1.0840 cd        1 YPH     -0.310200
     20 C5         -2.4050   11.2890    1.9380 ca        1 YPH     -0.211400
     21 C4         -2.9050   10.7390    3.2130 ca        1 YPH      0.603600
     22 N12        -3.2300   11.4540    4.2890 nb        1 YPH     -0.582000
     23 C13        -3.0530   12.8110    4.1110 ca        1 YPH      0.651900
     24 N14        -2.6080   13.4580    3.0170 nb        1 YPH     -0.698000
     25 C15        -2.2830   12.6830    1.9300 ca        1 YPH      0.409200
     26 N44        -1.7420   13.3500    0.7250 n4        1 YPH     -0.722700
     27 C16        -2.3870   14.6680    0.4440 c3        1 YPH      0.112800
     28 C17        -1.9330   15.2730   -0.8850 c3        1 YPH     -0.087100
     29 C18        -2.5260   16.6260   -1.0970 ca        1 YPH      0.000700
     30 C19        -1.6880   17.7440   -1.2350 ca        1 YPH     -0.092000
     31 C20        -2.2100   19.0020   -1.5220 ca        1 YPH     -0.075500
     32 C23        -3.9120   16.7920   -1.2280 ca        1 YPH     -0.092000
     33 C22        -4.4610   18.0400   -1.5130 ca        1 YPH     -0.075500
     34 C21        -3.6030   19.1440   -1.6770 ca        1 YPH     -0.094400
     35 N24        -4.1600   20.4430   -2.0930 n4        1 YPH     -0.491200
     36 C25        -4.8950   21.1280   -0.9790 c         1 YPH      0.478100
     37 O33        -5.8220   20.5840   -0.4040 o         1 YPH     -0.296100
     38 N26        -4.4840   22.5220   -0.6040 n4        1 YPH     -0.490200
     39 C27        -4.1150   23.3480   -1.7560 ca        1 YPH     -0.156400
     40 C28        -5.1090   24.0940   -2.4200 ca        1 YPH     -0.107000
     41 C29        -4.7280   24.9610   -3.4440 ca        1 YPH     -0.085500
     42 C30        -3.3840   25.0950   -3.7990 ca        1 YPH     -0.020000
     43 C31        -2.4020   24.3500   -3.1300 ca        1 YPH     -0.085500
     44 C32        -2.7520   23.4770   -2.1070 ca        1 YPH     -0.107000
     45 H1         -0.3680    1.1580   -1.3480 h1        1 YPH      0.033700
     46 H2         -0.4430   -0.5060   -0.6080 h1        1 YPH      0.033700
     47 H3          1.8100   -0.1190   -1.3910 hc        1 YPH      0.061200
     48 H4          1.9330    1.4900   -0.5700 hc        1 YPH      0.061200
     49 H5          1.7360   -1.2950    0.7810 h1        1 YPH      0.038700
     50 H6          3.7990   -0.5780    0.0990 ho        1 YPH      0.405000
     51 H7          1.7810   -0.0810    2.9320 hc        1 YPH      0.061200
     52 H8          1.9040    1.5160    2.0880 hc        1 YPH      0.061200
     53 H9         -0.4200    1.1570    2.8290 h1        1 YPH      0.033700
     54 H10        -0.4560   -0.5060    2.0880 h1        1 YPH      0.033700
     55 H12        -2.5140    0.4440    1.2740 h1        1 YPH      0.060700
     56 H13        -2.3770    1.2990   -0.3320 h1        1 YPH      0.060700
     57 H14        -3.5700    2.5260    1.6330 h1        1 YPH      0.059700
     58 H15        -1.8900    2.8220    2.3310 h1        1 YPH      0.059700
     59 H16        -3.0910    4.5660    2.8790 ha        1 YPH      0.172000
     60 H17        -3.1900    6.9770    3.4400 ha        1 YPH      0.146500
     61 H18        -1.6930    5.5470   -1.1240 ha        1 YPH      0.172000
     62 H19        -1.7950    7.9780   -0.5550 ha        1 YPH      0.146500
     63 H20        -1.8100   10.1880    0.0650 ha        1 YPH      0.173000
     64 H21        -3.3100   13.4410    4.9940 h5        1 YPH      0.098100
     65 H22        -1.8820   12.7090   -0.0680 hn        1 YPH      0.460800
     66 H23        -3.5030   14.5080    0.4430 hx        1 YPH      0.121700
     67 H24        -2.1300   15.3680    1.2930 hx        1 YPH      0.121700
     68 H25        -0.8100   15.3430   -0.9150 hc        1 YPH      0.095700
     69 H26        -2.2490   14.6130   -1.7420 hc        1 YPH      0.095700
     70 H27        -0.5920   17.6340   -1.1310 ha        1 YPH      0.189000
     71 H28        -1.5170   19.8520   -1.6450 ha        1 YPH      0.173500
     72 H29        -4.5900   15.9250   -1.1230 ha        1 YPH      0.189000
     73 H30        -5.5580   18.1370   -1.6100 ha        1 YPH      0.173500
     74 H31        -3.4040   21.0420   -2.4720 hn        1 YPH      0.503800
     75 H32        -5.2930   22.9580   -0.1120 hn        1 YPH      0.512300
     76 H33        -6.1750   24.0300   -2.1390 ha        1 YPH      0.166000
     77 H34        -5.5020   25.5600   -3.9640 ha        1 YPH      0.204000
     78 H35        -3.0890   25.8020   -4.6000 ha        1 YPH      0.208000
     79 H36        -1.3370   24.4740   -3.4040 ha        1 YPH      0.204000
     80 H37        -1.9580   22.9460   -1.5570 ha        1 YPH      0.166000
     81 H442       -0.7310   13.4850    0.8640 hn        1 YPH      0.460800
     82 H242       -4.8520   20.2680   -2.8490 hn        1 YPH      0.503800
     83 H262       -3.6910   22.4730    0.0600 hn        1 YPH      0.512300
@<TRIPOS>BOND
     1    1    2 1   
     2    1    7 1   
     3    1   45 1   
     4    1   46 1   
     5    2    3 1   
     6    2   47 1   
     7    2   48 1   
     8    3    4 1   
     9    3    5 1   
    10    3   49 1   
    11    4   50 1   
    12    5    6 1   
    13    5   51 1   
    14    5   52 1   
    15    6    7 1   
    16    6   53 1   
    17    6   54 1   
    18    7    8 1   
    19    8    9 1   
    20    8   55 1   
    21    8   56 1   
    22    9   10 1   
    23    9   57 1   
    24    9   58 1   
    25   10   11 1   
    26   11   12 ar  
    27   11   14 ar  
    28   12   13 ar  
    29   12   59 1   
    30   13   16 ar  
    31   13   60 1   
    32   14   15 ar  
    33   14   61 1   
    34   15   16 ar  
    35   15   62 1   
    36   16   17 1   
    37   17   18 1   
    38   17   19 2   
    39   18   21 1   
    40   19   20 1   
    41   19   63 1   
    42   20   21 ar  
    43   20   25 ar  
    44   21   22 ar  
    45   22   23 ar  
    46   23   24 ar  
    47   23   64 1   
    48   24   25 ar  
    49   25   26 1   
    50   26   27 1   
    51   26   65 1   
    52   26   81 1   
    53   27   28 1   
    54   27   66 1   
    55   27   67 1   
    56   28   29 1   
    57   28   68 1   
    58   28   69 1   
    59   29   30 ar  
    60   29   32 ar  
    61   30   31 ar  
    62   30   70 1   
    63   31   34 ar  
    64   31   71 1   
    65   32   33 ar  
    66   32   72 1   
    67   33   34 ar  
    68   33   73 1   
    69   34   35 1   
    70   35   36 1   
    71   35   74 1   
    72   35   82 1   
    73   36   37 2   
    74   36   38 1   
    75   38   39 1   
    76   38   75 1   
    77   38   83 1   
    78   39   40 ar  
    79   39   44 ar  
    80   40   41 ar  
    81   40   76 1   
    82   41   42 ar  
    83   41   77 1   
    84   42   43 ar  
    85   42   78 1   
    86   43   44 ar  
    87   43   79 1   
    88   44   80 1   
@<TRIPOS>SUBSTRUCTURE
     1 YPH         1 TEMP              0 ****  ****    0 ROOT
