@<TRIPOS>MOLECULE
molecule
   19    19     1     0     0
SMALL
bcc


@<TRIPOS>ATOM
      1 C1           0.0000     0.0000     0.0000 ca         1 YPN      -0.074000
      2 C2           1.3830     0.0000     0.0000 ca         1 YPN      -0.226300
      3 C3           2.0610     0.0000     1.2160 ca         1 YPN       0.544600
      4 N4           1.3930    -0.0010     2.3600 nb         1 YPN      -0.697000
      5 C5           0.0730    -0.0010     2.3910 ca         1 YPN       0.444200
      6 C6          -0.6630     0.0000     1.2220 ca         1 YPN      -0.111900
      7 Cl7         -2.3980     0.0000     1.2780 cl         1 YPN      -0.096400
      8 S8           3.8230    -0.0000     1.2330 ss         1 YPN      -0.322400
      9 C9           4.2130     0.0000     3.0050 c3         1 YPN       0.004700
     10 C10          5.7310    -0.0000     3.1930 c3         1 YPN       0.151400
     11 O11          6.0380     0.0000     4.5890 oh         1 YPN      -0.605800
     12 H1          -0.5540     0.0000    -0.9310 ha         1 YPN       0.155000
     13 H2           1.9320     0.0000    -0.9340 ha         1 YPN       0.154000
     14 H5          -0.4390    -0.0010     3.3450 h4         1 YPN       0.038100
     15 H91C         3.7920    -0.8850     3.4680 h1         1 YPN       0.087700
     16 H92C         3.7920     0.8850     3.4680 h1         1 YPN       0.087700
     17 H101         6.1520     0.8850     2.7310 h1         1 YPN       0.029700
     18 H102         6.1520    -0.8850     2.7310 h1         1 YPN       0.029700
     19 H11          6.9740     0.0000     4.7050 ho         1 YPN       0.408000
@<TRIPOS>BOND
     1     1     2 ar
     2     1     6 ar
     3     2     3 ar
     4     3     4 ar
     5     3     8 1
     6     4     5 ar
     7     5     6 ar
     8     6     7 1
     9     8     9 1
    10     9    10 1
    11    10    11 1
    12     1    12 1
    13     2    13 1
    14     5    14 1
    15     9    15 1
    16     9    16 1
    17    10    17 1
    18    10    18 1
    19    11    19 1
@<TRIPOS>SUBSTRUCTURE
     1 YPN         1 TEMP              0 ****  ****    0 ROOT
