@<TRIPOS>MOLECULE
molecule
   64    66     1     0     0
SMALL
bcc


@<TRIPOS>ATOM
      1 C            0.0000     0.0000     0.0000 c          1 YPP       0.889600
      2 N            1.9940     1.1980    -0.6900 ns         1 YPP      -0.500900
      3 O           -0.6050     1.0440    -0.0650 o          1 YPP      -0.838300
      4 CA           1.5070     0.0000     0.0000 c3         1 YPP       0.012700
      5 CB           2.0170     0.0000     1.4420 c3         1 YPP       0.306600
      6 NAE          3.5040    -0.0760     1.4860 n7         1 YPP      -0.779200
      7 CAG          3.9670    -0.5370     2.7990 c3         1 YPP       0.051500
      8 CAH          2.9830    -1.5140     3.4720 c3         1 YPP       0.036100
      9 SAI          1.5630    -1.5600     2.3070 ss         1 YPP      -0.415200
     10 CAJ          4.1530     0.6600     3.6960 c          1 YPP       0.907600
     11 OAK          3.6230     1.7100     3.4200 o          1 YPP      -0.851800
     12 OAL          4.9080     0.5590     4.8020 o          1 YPP      -0.851800
     13 CAM          3.6120    -2.9010     3.6110 c3         1 YPP      -0.066600
     14 CAN          2.5420    -0.9800     4.8360 c3         1 YPP      -0.066600
     15 CAP          2.1230     1.1960    -2.0310 c          1 YPP       0.652100
     16 OAQ          1.8340     0.2050    -2.6670 o          1 YPP      -0.653100
     17 CAR          2.6240     2.4270    -2.7420 c3         1 YPP       0.096000
     18 CAS          4.0060     2.7670    -2.2430 ca         1 YPP      -0.087300
     19 CAT          4.1750     3.7630    -1.3000 ca         1 YPP      -0.101500
     20 CAU          5.4420     4.0740    -0.8440 ca         1 YPP      -0.124500
     21 CAV          6.5400     3.3880    -1.3300 ca         1 YPP      -0.127000
     22 CAW          6.3700     2.3910    -2.2720 ca         1 YPP      -0.124500
     23 CAX          5.1030     2.0770    -2.7260 ca         1 YPP      -0.101500
     24 NAY          2.6740     2.1730    -4.1840 ns         1 YPP      -0.567900
     25 CAZ          2.5940     3.2010    -5.0520 c          1 YPP       0.769100
     26 OBA          2.5710     4.3440    -4.6400 o          1 YPP      -0.589100
     27 NBB          2.5400     2.9610    -6.3770 n          1 YPP      -0.499400
     28 CBC          2.6780     1.5930    -6.8770 c3         1 YPP       0.069000
     29 CBD          1.7520     1.3620    -8.0680 c3         1 YPP       0.089000
     30 NBE          1.9390     2.4090    -9.0730 n          1 YPP      -0.495800
     31 CBF          2.1670     3.6820    -8.6920 c          1 YPP       0.635500
     32 OBG          2.2140     4.5720    -9.5150 o          1 YPP      -0.601500
     33 CBH          2.3530     3.9810    -7.2380 c          1 YPP       0.634500
     34 OBI          2.3420     5.1270    -6.8400 o          1 YPP      -0.505500
     35 CBJ          1.8800     2.0730   -10.4980 c3         1 YPP       0.107000
     36 CBK          0.4390     2.2100   -10.9940 c3         1 YPP      -0.113100
     37 OXT         -0.6710    -1.1610     0.0790 o          1 YPP      -0.838300
     38 HN           2.1730     2.0350    -0.1710 hn         1 YPP       0.327500
     39 HA           1.8680    -0.8840    -0.5110 h1         1 YPP       0.078700
     40 HB           1.6580     0.8630     1.9890 h2         1 YPP       0.119700
     41 HNAE         3.8280    -0.7060     0.7790 hn         1 YPP       0.329800
     42 HAG          4.9200    -1.0370     2.6750 h1         1 YPP       0.046700
     43 HAM          3.9320    -3.2520     2.6370 hc         1 YPP       0.034033
     44 HAMA         2.8820    -3.5890     4.0210 hc         1 YPP       0.034033
     45 HAMB         4.4670    -2.8450     4.2730 hc         1 YPP       0.034033
     46 HAN          2.1770     0.0340     4.7270 hc         1 YPP       0.034033
     47 HANA         1.7530    -1.6070     5.2310 hc         1 YPP       0.034033
     48 HANB         3.3850    -0.9890     5.5170 hc         1 YPP       0.034033
     49 HAR          1.9550     3.2560    -2.5440 h1         1 YPP       0.102700
     50 HAT          3.3150     4.3010    -0.9200 ha         1 YPP       0.129500
     51 HAU          5.5750     4.8550    -0.1060 ha         1 YPP       0.120000
     52 HAV          7.5330     3.6330    -0.9730 ha         1 YPP       0.116000
     53 HAW          7.2300     1.8520    -2.6510 ha         1 YPP       0.120000
     54 HAX          4.9700     1.2950    -3.4640 ha         1 YPP       0.129500
     55 HNAY         2.7660     1.2360    -4.5240 hn         1 YPP       0.327500
     56 HBC          3.7030     1.4280    -7.1850 h1         1 YPP       0.070700
     57 HBCA         2.4210     0.8980    -6.0870 h1         1 YPP       0.070700
     58 HBD          1.9760     0.4000    -8.5120 h1         1 YPP       0.060700
     59 HBDA         0.7240     1.3750    -7.7280 h1         1 YPP       0.060700
     60 HBJ          2.2170     1.0540   -10.6430 h1         1 YPP       0.053200
     61 HBJA         2.5190     2.7480   -11.0550 h1         1 YPP       0.053200
     62 HBK         -0.0290     3.0610   -10.5150 hc         1 YPP       0.041367
     63 HBKA         0.4390     2.3550   -12.0680 hc         1 YPP       0.041367
     64 HBKB        -0.1140     1.3100   -10.7510 hc         1 YPP       0.041367
@<TRIPOS>BOND
     1     1     3 1
     2     1     4 1
     3     1    37 1
     4     2     4 1
     5     2    15 1
     6     4     5 1
     7     5     6 1
     8     5     9 1
     9     6     7 1
    10     7     8 1
    11     7    10 1
    12     8     9 1
    13     8    13 1
    14     8    14 1
    15    10    11 1
    16    10    12 1
    17    15    16 2
    18    15    17 1
    19    17    18 1
    20    17    24 1
    21    18    19 ar
    22    18    23 ar
    23    19    20 ar
    24    20    21 ar
    25    21    22 ar
    26    22    23 ar
    27    24    25 1
    28    25    26 2
    29    25    27 1
    30    27    28 1
    31    27    33 1
    32    28    29 1
    33    29    30 1
    34    30    31 1
    35    30    35 1
    36    31    32 2
    37    31    33 1
    38    33    34 2
    39    35    36 1
    40     2    38 1
    41     4    39 1
    42     5    40 1
    43     6    41 1
    44     7    42 1
    45    13    43 1
    46    13    44 1
    47    13    45 1
    48    14    46 1
    49    14    47 1
    50    14    48 1
    51    17    49 1
    52    19    50 1
    53    20    51 1
    54    21    52 1
    55    22    53 1
    56    23    54 1
    57    24    55 1
    58    28    56 1
    59    28    57 1
    60    29    58 1
    61    29    59 1
    62    35    60 1
    63    35    61 1
    64    36    62 1
    65    36    63 1
    66    36    64 1
@<TRIPOS>SUBSTRUCTURE
     1 YPP         1 TEMP              0 ****  ****    0 ROOT
