@<TRIPOS>MOLECULE
YPW
   49    51     1     0     0
SMALL
bcc


@<TRIPOS>ATOM
      1 C1           0.0000     0.0000     0.0000 ca         1 YPW       0.446300
      2 C2           1.4000     0.0000     0.0000 ca         1 YPW       0.375900
      3 N3           2.0620     0.0000     1.1480 nb         1 YPW      -0.603000
      4 C4           1.4020    -0.0010     2.2930 ca         1 YPW       0.295900
      5 C5           0.0100    -0.0010     2.2970 cp         1 YPW       0.302500
      6 N6          -0.6600     0.0000     1.1450 nb         1 YPW      -0.548000
      7 N7           2.0960    -0.0000    -1.2050 nv         1 YPW      -0.523500
      8 O8          -0.6800     0.0060    -1.1750 os         1 YPW      -0.439100
      9 C9          -2.1010     0.1280    -1.1020 c3         1 YPW       0.190400
     10 C10         -2.6190     0.7420    -2.3770 ca         1 YPW       0.008700
     11 C11         -3.8560     1.3890    -2.3890 ca         1 YPW      -0.168600
     12 C12         -4.3300     1.9560    -3.5750 ca         1 YPW      -0.056000
     13 C13         -3.5760     1.8740    -4.7250 ca         1 YPW      -0.147000
     14 C14         -2.3480     1.2300    -4.7070 ca         1 YPW       0.128900
     15 C15         -1.8700     0.6700    -3.5320 ca         1 YPW      -0.133000
     16 F16         -1.6120     1.1510    -5.8380 f          1 YPW      -0.126900
     17 C17         -0.7270    -0.0010     3.5820 cp         1 YPW      -0.284800
     18 C18         -2.1230    -0.1070     3.6030 ca         1 YPW       0.647600
     19 N19         -2.7790    -0.1080     4.7510 nb         1 YPW      -0.671000
     20 C20         -2.1530    -0.0100     5.9090 ca         1 YPW       0.451200
     21 C21         -0.7770     0.0970     5.9690 ca         1 YPW      -0.276300
     22 C22         -0.0420     0.0970     4.7950 ca         1 YPW      -0.033000
     23 O23         -2.8080    -0.2090     2.4360 os         1 YPW      -0.381100
     24 C24         -4.2320    -0.2810     2.5250 c3         1 YPW       0.233700
     25 C25         -4.6610     1.4740    -1.1530 c          1 YPW       0.597700
     26 N26         -5.8950     2.0150    -1.1890 ns         1 YPW      -0.196900
     27 O27         -4.2100     1.0560    -0.1050 o          1 YPW      -0.643100
     28 C28         -6.6930     2.0980     0.0370 c3         1 YPW       0.085300
     29 C29         -2.7240    -1.2570    -0.9140 c3         1 YPW      -0.019100
     30 H4           1.9450    -0.0010     3.2310 h4         1 YPW      -0.007900
     31 HN7          3.0670     0.2430    -1.2220 hn         1 YPW       0.274300
     32 HN7A         1.6300    -0.2610    -2.0520 hn         1 YPW       0.274300
     33 H9          -2.3660     0.7600    -0.2630 h1         1 YPW       0.110700
     34 H12         -5.2890     2.4600    -3.5900 ha         1 YPW       0.104000
     35 H13         -3.9440     2.3120    -5.6460 ha         1 YPW       0.121000
     36 H15         -0.9110     0.1680    -3.5240 ha         1 YPW       0.135000
     37 H20         -2.7280    -0.0120     6.8270 h4         1 YPW      -0.024900
     38 H21         -0.2760     0.1740     6.9270 ha         1 YPW       0.115000
     39 H22          1.0380     0.1800     4.8160 ha         1 YPW       0.114000
     40 H24         -4.6340     0.7100     2.6970 h1         1 YPW       0.003700
     41 H24A        -4.6320    -0.6770     1.5990 h1         1 YPW       0.003700
     42 H24B        -4.5100    -0.9310     3.3460 h1         1 YPW       0.003700
     43 HN26        -6.2830     2.3190    -2.0610 hn         1 YPW       0.176500
     44 H28         -6.1350     2.6330     0.7960 h1         1 YPW       0.011033
     45 H28A        -7.6180     2.6240    -0.1690 h1         1 YPW       0.011033
     46 H28B        -6.9170     1.0990     0.3910 h1         1 YPW       0.011033
     47 H29         -1.9510    -2.0130    -0.9850 hc         1 YPW       0.017033
     48 H29A        -3.4670    -1.4260    -1.6830 hc         1 YPW       0.017033
     49 H29B        -3.1940    -1.3120     0.0610 hc         1 YPW       0.017033
@<TRIPOS>BOND
     1     1     2 ar  
     2     1     6 ar  
     3     1     8 1   
     4     2     3 ar  
     5     2     7 1   
     6     3     4 ar  
     7     4     5 ar  
     8     4    30 1   
     9     5     6 ar  
    10     5    17 1   
    11     7    31 1   
    12     7    32 1   
    13     8     9 1   
    14     9    10 1   
    15     9    29 1   
    16     9    33 1   
    17    10    11 ar  
    18    10    15 ar  
    19    11    12 ar  
    20    11    25 1   
    21    12    13 ar  
    22    12    34 1   
    23    13    14 ar  
    24    13    35 1   
    25    14    15 ar  
    26    14    16 1   
    27    15    36 1   
    28    17    18 ar  
    29    17    22 ar  
    30    18    19 ar  
    31    18    23 1   
    32    19    20 ar  
    33    20    21 ar  
    34    20    37 1   
    35    21    22 ar  
    36    21    38 1   
    37    22    39 1   
    38    23    24 1   
    39    24    40 1   
    40    24    41 1   
    41    24    42 1   
    42    25    26 1   
    43    25    27 2   
    44    26    28 1   
    45    26    43 1   
    46    28    44 1   
    47    28    45 1   
    48    28    46 1   
    49    29    47 1   
    50    29    48 1   
    51    29    49 1   
@<TRIPOS>SUBSTRUCTURE
     1 YPW         1 TEMP              0 ****  ****    0 ROOT
