@<TRIPOS>MOLECULE
molecule
   49    51     1     0     0
SMALL
bcc


@<TRIPOS>ATOM
      1 C1           0.0000     0.0000     0.0000 ca         1 YPW       0.491300
      2 C2           1.4000     0.0000     0.0000 ca         1 YPW       0.575900
      3 N3           2.0620     0.0000     1.1480 nb         1 YPW      -0.705000
      4 C4           1.4020    -0.0010     2.2930 ca         1 YPW       0.309900
      5 C5           0.0100    -0.0010     2.2970 cp         1 YPW       0.346500
      6 N6          -0.6600     0.0000     1.1450 nb         1 YPW      -0.667000
      7 N7           2.0960    -0.0000    -1.2050 nv         1 YPW      -1.006500
      8 O8          -0.6800     0.0060    -1.1750 os         1 YPW      -0.460100
      9 C9          -2.1010     0.1280    -1.1020 c3         1 YPW       0.179400
     10 C10         -2.6190     0.7420    -2.3770 ca         1 YPW       0.005700
     11 C11         -3.8560     1.3890    -2.3890 ca         1 YPW      -0.164600
     12 C12         -4.3300     1.9560    -3.5750 ca         1 YPW      -0.078000
     13 C13         -3.5760     1.8740    -4.7250 ca         1 YPW      -0.180000
     14 C14         -2.3480     1.2300    -4.7070 ca         1 YPW       0.155900
     15 C15         -1.8700     0.6700    -3.5320 ca         1 YPW      -0.161000
     16 F16         -1.6120     1.1510    -5.8380 f          1 YPW      -0.136900
     17 C17         -0.7270    -0.0010     3.5820 cp         1 YPW      -0.275800
     18 C18         -2.1230    -0.1070     3.6030 ca         1 YPW       0.685600
     19 N19         -2.7790    -0.1080     4.7510 nb         1 YPW      -0.778000
     20 C20         -2.1530    -0.0100     5.9090 ca         1 YPW       0.466200
     21 C21         -0.7770     0.0970     5.9690 ca         1 YPW      -0.302300
     22 C22         -0.0420     0.0970     4.7950 ca         1 YPW      -0.056000
     23 O23         -2.8080    -0.2090     2.4360 os         1 YPW      -0.392100
     24 C24         -4.2320    -0.2810     2.5250 c3         1 YPW       0.133700
     25 C25         -4.6610     1.4740    -1.1530 c          1 YPW       0.674700
     26 N26         -5.8950     2.0150    -1.1890 ns         1 YPW      -0.584900
     27 O27         -4.2100     1.0560    -0.1050 o          1 YPW      -0.605100
     28 C28         -6.6930     2.0980     0.0370 c3         1 YPW       0.103300
     29 C29         -2.7240    -1.2570    -0.9140 c3         1 YPW      -0.097100
     30 H4           1.9450    -0.0010     3.2310 h4         1 YPW       0.029100
     31 HN7          3.0670     0.2430    -1.2220 hn         1 YPW       0.444800
     32 HN7A         1.6300    -0.2610    -2.0520 hn         1 YPW       0.444800
     33 H9          -2.3660     0.7600    -0.2630 h1         1 YPW       0.136700
     34 H12         -5.2890     2.4600    -3.5900 ha         1 YPW       0.132000
     35 H13         -3.9440     2.3120    -5.6460 ha         1 YPW       0.148000
     36 H15         -0.9110     0.1680    -3.5240 ha         1 YPW       0.163000
     37 H20         -2.7280    -0.0120     6.8270 h4         1 YPW       0.021100
     38 H21         -0.2760     0.1740     6.9270 ha         1 YPW       0.139000
     39 H22          1.0380     0.1800     4.8160 ha         1 YPW       0.141000
     40 H24         -4.6340     0.7100     2.6970 h1         1 YPW       0.046033
     41 H24A        -4.6320    -0.6770     1.5990 h1         1 YPW       0.046033
     42 H24B        -4.5100    -0.9310     3.3460 h1         1 YPW       0.046033
     43 HN26        -6.2830     2.3190    -2.0610 hn         1 YPW       0.314500
     44 H28         -6.1350     2.6330     0.7960 h1         1 YPW       0.043367
     45 H28A        -7.6180     2.6240    -0.1690 h1         1 YPW       0.043367
     46 H28B        -6.9170     1.0990     0.3910 h1         1 YPW       0.043367
     47 H29         -1.9510    -2.0130    -0.9850 hc         1 YPW       0.048033
     48 H29A        -3.4670    -1.4260    -1.6830 hc         1 YPW       0.048033
     49 H29B        -3.1940    -1.3120     0.0610 hc         1 YPW       0.048033
@<TRIPOS>BOND
     1     1     2 ar
     2     1     6 ar
     3     1     8 1
     4     2     3 ar
     5     2     7 1
     6     3     4 ar
     7     4     5 ar
     8     5     6 ar
     9     5    17 1
    10     8     9 1
    11     9    10 1
    12     9    29 1
    13    10    11 ar
    14    10    15 ar
    15    11    12 ar
    16    11    25 1
    17    12    13 ar
    18    13    14 ar
    19    14    15 ar
    20    14    16 1
    21    17    18 ar
    22    17    22 ar
    23    18    19 ar
    24    18    23 1
    25    19    20 ar
    26    20    21 ar
    27    21    22 ar
    28    23    24 1
    29    25    26 1
    30    25    27 2
    31    26    28 1
    32     4    30 1
    33     7    31 1
    34     7    32 1
    35     9    33 1
    36    12    34 1
    37    13    35 1
    38    15    36 1
    39    20    37 1
    40    21    38 1
    41    22    39 1
    42    24    40 1
    43    24    41 1
    44    24    42 1
    45    26    43 1
    46    28    44 1
    47    28    45 1
    48    28    46 1
    49    29    47 1
    50    29    48 1
    51    29    49 1
@<TRIPOS>SUBSTRUCTURE
     1 YPW         1 TEMP              0 ****  ****    0 ROOT
