@<TRIPOS>MOLECULE
YQA
   18    18     1     0     0
SMALL
bcc


@<TRIPOS>ATOM
      1 O1           0.0000     0.0000     0.0000 o          1 YQA      -0.910800
      2 C7           1.3460     0.0000     0.0000 c          1 YQA       1.051800
      3 O2           1.9530     0.0000     1.0510 o          1 YQA      -0.910800
      4 C2           2.0890     0.0010    -1.2850 ce         1 YQA      -0.027600
      5 N1           2.4640     1.1830    -1.8440 ne         1 YQA      -0.365300
      6 C6           2.7780     1.2750    -3.0920 c2         1 YQA       0.210200
      7 C5           2.7420     0.0720    -3.9950 c3         1 YQA       0.129800
      8 O9           1.4210    -0.0930    -4.5150 oh         1 YQA      -0.552800
      9 C4           3.1360    -1.1760    -3.2000 c3         1 YQA       0.008800
     10 C3           2.3900    -1.1790    -1.8880 cf         1 YQA      -0.134400
     11 C8           1.9890    -2.4470    -1.2710 c          1 YQA       0.964800
     12 O4           2.3820    -3.6170    -1.8150 o          1 YQA      -0.880300
     13 O3           1.3020    -2.4450    -0.2670 o          1 YQA      -0.880300
     14 H2           3.0740     2.2350    -3.4960 h4         1 YQA      -0.055200
     15 H4           3.4410     0.2140    -4.8100 h1         1 YQA      -0.043300
     16 H5           1.4070     0.1590    -5.4240 ho         1 YQA       0.342000
     17 H6           2.8750    -2.0620    -3.7650 hc         1 YQA       0.026700
     18 H7           4.2020    -1.1610    -3.0090 hc         1 YQA       0.026700
@<TRIPOS>BOND
     1     1     2 1   
     2     2     3 1   
     3     2     4 1   
     4     4     5 1   
     5     4    10 2   
     6     5     6 2   
     7     6     7 1   
     8     6    14 1   
     9     7     8 1   
    10     7     9 1   
    11     7    15 1   
    12     8    16 1   
    13     9    10 1   
    14     9    17 1   
    15     9    18 1   
    16    10    11 1   
    17    11    12 1   
    18    11    13 1   
@<TRIPOS>SUBSTRUCTURE
     1 YQA         1 TEMP              0 ****  ****    0 ROOT
