@<TRIPOS>MOLECULE
YQY
   42    44     1     0     0
SMALL
bcc


@<TRIPOS>ATOM
      1 F26          0.0000     0.0000     0.0000 f          1 YQY      -0.094900
      2 C9           1.3520     0.0000     0.0000 ca         1 YQY       0.080900
      3 C10          2.0430     0.0000     1.1990 ca         1 YQY       0.125900
      4 F22          1.3650     0.0000     2.3670 f          1 YQY      -0.100900
      5 C11          3.4320    -0.0010     1.2060 ca         1 YQY      -0.111000
      6 C12          4.1350    -0.0010     0.0230 ca         1 YQY      -0.101000
      7 C13          3.4500    -0.0020    -1.1950 ca         1 YQY      -0.158600
      8 C16          4.1980    -0.0020    -2.4650 c          1 YQY       0.660700
      9 O18          3.6050     0.1200    -3.5200 o          1 YQY      -0.584100
     10 N17          5.5390    -0.1380    -2.4570 nj         1 YQY      -0.187800
     11 C21          6.6140    -0.0850    -3.4580 cy         1 YQY       0.057500
     12 C20          7.4280    -1.0230    -2.5560 cy         1 YQY       0.052800
     13 O23          7.1810    -2.4120    -2.7810 oh         1 YQY      -0.552800
     14 C24          8.9160    -0.6780    -2.4710 c3         1 YQY      -0.057200
     15 N25          9.5910    -1.6360    -1.5860 nz         1 YQY       0.100400
     16 C19          6.5710    -0.3980    -1.4420 cy         1 YQY       0.057500
     17 C8           2.0460    -0.0060    -1.2040 ca         1 YQY       0.077600
     18 N7           1.3540    -0.0110    -2.4100 nu         1 YQY      -0.251000
     19 C5           0.8760     1.1880    -2.9470 ca         1 YQY       0.039600
     20 C6           0.2770     1.2010    -4.2030 ca         1 YQY       0.052900
     21 F15          0.1580     0.0540    -4.9070 f          1 YQY      -0.123900
     22 C1          -0.1950     2.3880    -4.7300 ca         1 YQY      -0.066000
     23 C4           0.9910     2.3690    -2.2250 ca         1 YQY      -0.166000
     24 C3           0.5170     3.5530    -2.7580 ca         1 YQY      -0.044000
     25 C2          -0.0720     3.5640    -4.0090 ca         1 YQY       0.164900
     26 I14         -0.7880     5.3610    -4.8110 i          1 YQY      -0.263900
     27 H11          3.9650    -0.0020     2.1490 ha         1 YQY       0.128000
     28 H12          5.2160     0.0650     0.0360 ha         1 YQY       0.109000
     29 H211         6.3370    -0.5420    -4.4000 h1         1 YQY       0.047950
     30 H212         7.0560     0.9000    -3.5510 h1         1 YQY       0.047950
     31 H191         6.2570    -1.1180    -0.6960 h1         1 YQY       0.047950
     32 H192         7.0020     0.5100    -1.0370 h1         1 YQY       0.047950
     33 H23          7.2780    -2.6040    -3.6990 ho         1 YQY       0.428000
     34 H241         9.3550    -0.7290    -3.4610 hx         1 YQY       0.089200
     35 H242         9.0330     0.3240    -2.0760 hx         1 YQY       0.089200
     36 H251         9.0540    -1.7520    -0.7500 hn         1 YQY       0.225467
     37 H252         9.6770    -2.5170    -2.0530 hn         1 YQY       0.225467
     38 H7           1.1600    -0.8780    -2.8710 hn         1 YQY       0.314800
     39 H4           1.4530     2.3620    -1.2450 ha         1 YQY       0.113000
     40 H1          -0.6590     2.3990    -5.7090 ha         1 YQY       0.134000
     41 H3           0.6100     4.4740    -2.1960 ha         1 YQY       0.118000
     42 H253        10.5080    -1.3000    -1.3680 hn         1 YQY       0.225467
@<TRIPOS>BOND
     1     1     2 1   
     2     2     3 ar  
     3     2    17 ar  
     4     3     4 1   
     5     3     5 ar  
     6     5     6 ar  
     7     5    27 1   
     8     6     7 ar  
     9     6    28 1   
    10     7     8 1   
    11     7    17 ar  
    12     8     9 2   
    13     8    10 1   
    14    10    11 1   
    15    10    16 1   
    16    11    12 1   
    17    11    29 1   
    18    11    30 1   
    19    12    13 1   
    20    12    14 1   
    21    12    16 1   
    22    13    33 1   
    23    14    15 1   
    24    14    34 1   
    25    14    35 1   
    26    15    36 1   
    27    15    37 1   
    28    15    42 1   
    29    16    31 1   
    30    16    32 1   
    31    17    18 1   
    32    18    19 1   
    33    18    38 1   
    34    19    20 ar  
    35    19    23 ar  
    36    20    21 1   
    37    20    22 ar  
    38    22    25 ar  
    39    22    40 1   
    40    23    24 ar  
    41    23    39 1   
    42    24    25 ar  
    43    24    41 1   
    44    25    26 1   
@<TRIPOS>SUBSTRUCTURE
     1 YQY         1 TEMP              0 ****  ****    0 ROOT
