@<TRIPOS>MOLECULE
molecule
   49    52     1     0     0
SMALL
bcc


@<TRIPOS>ATOM
      1 OAA          0.0000     0.0000     0.0000 o          1 YR1      -0.818800
      2 OAB          9.6680    -0.9770     3.9760 o          1 YR1      -0.502100
      3 OAD          5.2210    -4.6450     8.0220 o          1 YR1      -0.214000
      4 OAE          1.8880     0.0000    -1.1680 o          1 YR1      -0.818800
      5 OAF          8.7110     0.0020     0.9820 oh         1 YR1      -0.469100
      6 OAG         -0.1020     0.0000     2.4970 oh         1 YR1      -0.464100
      7 OAH          5.1710    -5.8020     6.2590 o          1 YR1      -0.214000
      8 CAI          9.8990     3.3640     6.3850 ca         1 YR1      -0.104000
      9 CAJ         10.7770     2.2970     6.3110 ca         1 YR1      -0.144000
     10 CAK          8.7060     3.3370     5.6830 ca         1 YR1      -0.144000
     11 CAL         10.4700     1.2000     5.5350 ca         1 YR1      -0.080500
     12 CAM          8.3870     2.2460     4.9030 ca         1 YR1      -0.080500
     13 CAN          1.9550    -0.0000     3.6890 ca         1 YR1      -0.202000
     14 CAO          5.9420    -1.1490     5.8760 ca         1 YR1      -0.111000
     15 CAP          5.8850    -2.4630     3.8750 ca         1 YR1      -0.111000
     16 CAQ          3.3340     0.0000     3.6860 ca         1 YR1      -0.168000
     17 CAR          5.7020    -2.2840     6.6280 ca         1 YR1      -0.069500
     18 CAS          5.6470    -3.5970     4.6270 ca         1 YR1      -0.069500
     19 CAT          3.3500     0.0010     1.2790 ca         1 YR1      -0.093000
     20 CAU          1.2150     0.0000     0.0000 c          1 YR1       0.879200
     21 CAV          7.6480     0.0020     1.8200 ce         1 YR1       0.076900
     22 CAW          8.9330    -0.0070     3.9870 c          1 YR1       0.613900
     23 CAX          6.2300     0.0010     1.4050 c          1 YR1       0.653700
     24 CAY          7.7150    -0.0020     3.1730 cf         1 YR1      -0.253400
     25 CAZ          1.2550    -0.0000     2.4920 ca         1 YR1       0.126100
     26 CBA          9.2690     1.1660     4.8220 ca         1 YR1      -0.168600
     27 CBB          6.0320    -1.2380     4.4990 ca         1 YR1      -0.049300
     28 CBC          1.9520     0.0010     1.2760 ca         1 YR1      -0.093600
     29 CBD          4.0350    -0.0000     2.4830 ca         1 YR1       0.002600
     30 CBE          5.5550    -3.5080     6.0040 ca         1 YR1      -0.155200
     31 CBF          6.2930    -0.0000     3.6790 c3         1 YR1       0.196200
     32 NBG          5.4340     0.0010     2.4890 n          1 YR1      -0.354000
     33 NBH          5.3010    -4.7240     6.8090 no         1 YR1       0.296200
     34 HOAF         8.6360     0.7220     0.3790 ho         1 YR1       0.439000
     35 HOAG        -0.4140    -0.6980     3.0490 ho         1 YR1       0.395000
     36 HAI         10.1450     4.2240     6.9960 ha         1 YR1       0.129000
     37 HAJ         11.7080     2.3250     6.8640 ha         1 YR1       0.134000
     38 HAK          8.0230     4.1750     5.7450 ha         1 YR1       0.134000
     39 HAL         11.1590     0.3660     5.4780 ha         1 YR1       0.147000
     40 HAM          7.4540     2.2260     4.3530 ha         1 YR1       0.147000
     41 HAN          1.4170    -0.0000     4.6290 ha         1 YR1       0.117000
     42 HAO          6.0570    -0.1890     6.3660 ha         1 YR1       0.156000
     43 HAP          5.9560    -2.5330     2.7970 ha         1 YR1       0.156000
     44 HAQ          3.8750    -0.0000     4.6240 ha         1 YR1       0.106000
     45 HAR          5.6310    -2.2140     7.7070 ha         1 YR1       0.164000
     46 HAS          5.5310    -4.5570     4.1370 ha         1 YR1       0.164000
     47 HAT          3.8950     0.0010     0.3440 ha         1 YR1       0.205000
     48 HBF          6.1100     0.8900     4.2690 h1         1 YR1       0.082700
     49 OAC          5.8410     0.0010     0.2530 o          1 YR1      -0.568500
@<TRIPOS>BOND
     1     1    20 1
     2     2    22 2
     3    49    23 2
     4     3    33 1
     5     4    20 1
     6     5    21 1
     7     6    25 1
     8     7    33 1
     9     8     9 ar
    10     8    10 ar
    11     9    11 ar
    12    10    12 ar
    13    11    26 ar
    14    12    26 ar
    15    13    16 ar
    16    13    25 ar
    17    14    17 ar
    18    14    27 ar
    19    15    18 ar
    20    15    27 ar
    21    16    29 ar
    22    17    30 ar
    23    18    30 ar
    24    19    28 ar
    25    19    29 ar
    26    20    28 1
    27    21    23 1
    28    21    24 2
    29    22    24 1
    30    22    26 1
    31    23    32 1
    32    24    31 1
    33    25    28 ar
    34    27    31 1
    35    29    32 1
    36    30    33 1
    37    31    32 1
    38     5    34 1
    39     6    35 1
    40     8    36 1
    41     9    37 1
    42    10    38 1
    43    11    39 1
    44    12    40 1
    45    13    41 1
    46    14    42 1
    47    15    43 1
    48    16    44 1
    49    17    45 1
    50    18    46 1
    51    19    47 1
    52    31    48 1
@<TRIPOS>SUBSTRUCTURE
     1 YR1         1 TEMP              0 ****  ****    0 ROOT
