@<TRIPOS>MOLECULE
YR3
   75    76     1     0     0
SMALL
bcc


@<TRIPOS>ATOM
      1 C1         -0.0760    0.2820   -0.3720 ca        1 YR3     -0.200000
      2 C2          1.2290   -0.2190   -0.3980 ca        1 YR3      0.120100
      3 C3          1.9000   -0.5320    0.8050 ca        1 YR3     -0.102300
      4 C4          1.2320   -0.3380    2.0140 ca        1 YR3     -0.101000
      5 C5         -0.0830    0.1460    2.0590 ca        1 YR3     -0.095300
      6 C6         -0.7170    0.4650    0.8520 ca        1 YR3     -0.098000
      7 C7         -0.7790    0.4020    3.3750 c3        1 YR3      0.054600
      8 C8         -2.2700    0.1730    3.2820 ca        1 YR3     -0.094300
      9 C9         -0.2570   -0.5060    4.5080 c3        1 YR3     -0.069400
     10 C10        -0.4290    1.8470    3.7920 c3        1 YR3     -0.069400
     11 C11        -0.9660    2.9130    2.8740 c3        1 YR3     -0.098600
     12 C12        -0.3790   -1.9820    4.2370 c3        1 YR3     -0.098600
     13 C13        -2.7730   -0.8580    2.4730 ca        1 YR3     -0.100000
     14 C14        -4.1360   -1.1330    2.3950 ca        1 YR3     -0.101300
     15 C15        -5.0260   -0.3520    3.1670 ca        1 YR3      0.122100
     16 O33        -8.8090   -0.2000    1.8310 oh        1 YR3     -0.599800
     17 C22        -8.6720   -0.3110    3.2420 c3        1 YR3      0.150100
     18 C23        -9.8250    0.4840    3.8870 c3        1 YR3     -0.047000
     19 C26       -11.1400   -0.1050    3.3900 c3        1 YR3     -0.088433
     20 C25        -9.7590    0.3460    5.4000 c3        1 YR3     -0.088433
     21 C24        -9.7550    1.9510    3.4960 c3        1 YR3     -0.088433
     22 C21        -7.2930    0.2010    3.6740 c3        1 YR3      0.088400
     23 O20        -6.3610   -0.6920    3.0490 os        1 YR3     -0.344900
     24 C18        -4.6520   -2.2240    1.5380 c3        1 YR3     -0.041800
     25 C16        -4.5430    0.6660    3.9920 ca        1 YR3     -0.200000
     26 C17        -3.1720    0.9170    4.0480 ca        1 YR3     -0.100000
     27 C19         3.2860   -1.0500    0.7690 c3        1 YR3     -0.040800
     28 O27         1.9620   -0.4310   -1.5510 os        1 YR3     -0.334900
     29 C28         1.2590   -0.2160   -2.7790 c3        1 YR3      0.126400
     30 C29         2.2300   -0.6410   -3.8860 c3        1 YR3      0.143100
     31 O32         1.4380   -0.8010   -5.0540 oh        1 YR3     -0.603800
     32 C30         3.3110    0.4230   -4.0960 c3        1 YR3      0.092400
     33 O31         4.1460   -0.0600   -5.1360 oh        1 YR3     -0.613800
     34 H1         -0.6050    0.5380   -1.3000 ha        1 YR3      0.140000
     35 H4          1.7670   -0.5750    2.9460 ha        1 YR3      0.137000
     36 H6         -1.7410    0.8720    0.8640 ha        1 YR3      0.144000
     37 H9          0.8150   -0.2480    4.7180 hc        1 YR3      0.040700
     38 H9A        -0.8390   -0.2550    5.4360 hc        1 YR3      0.040700
     39 H10        -0.7990    2.0250    4.8360 hc        1 YR3      0.040700
     40 H10A        0.6910    1.9250    3.8250 hc        1 YR3      0.040700
     41 H11        -2.0770    2.8430    2.7840 hc        1 YR3      0.038533
     42 H11A       -0.5270    2.8120    1.8510 hc        1 YR3      0.038533
     43 H11B       -0.7050    3.9230    3.2720 hc        1 YR3      0.038533
     44 H12         0.1490   -2.2620    3.2940 hc        1 YR3      0.038533
     45 H12A       -1.4520   -2.2780    4.1370 hc        1 YR3      0.038533
     46 H12B        0.0690   -2.5610    5.0810 hc        1 YR3      0.038533
     47 H13        -2.0710   -1.4720    1.8830 ha        1 YR3      0.146000
     48 H22        -8.7640   -1.3970    3.5350 h1        1 YR3      0.046700
     49 H26       -11.1850   -0.0480    2.2760 hc        1 YR3      0.039256
     50 H26A      -11.2260   -1.1750    3.6980 hc        1 YR3      0.039256
     51 H26B      -12.0020    0.4610    3.8180 hc        1 YR3      0.039256
     52 H25        -9.6700   -0.7280    5.6930 hc        1 YR3      0.039256
     53 H25A      -10.6900    0.7620    5.8560 hc        1 YR3      0.039256
     54 H25B       -8.8870    0.9050    5.8150 hc        1 YR3      0.039256
     55 H24        -9.6880    2.0440    2.3850 hc        1 YR3      0.039256
     56 H24A       -8.8610    2.4390    3.9520 hc        1 YR3      0.039256
     57 H24B      -10.6680    2.4860    3.8500 hc        1 YR3      0.039256
     58 H21        -7.1730    0.1450    4.7860 h1        1 YR3      0.053700
     59 H21A       -7.1210    1.2460    3.3100 h1        1 YR3      0.053700
     60 H18        -3.8670   -2.5960    0.8370 hc        1 YR3      0.045367
     61 H18A       -5.5290   -1.8650    0.9430 hc        1 YR3      0.045367
     62 H18B       -4.9970   -3.0780    2.1750 hc        1 YR3      0.045367
     63 H16        -5.2260    1.2720    4.6030 ha        1 YR3      0.136000
     64 H17        -2.8150    1.7170    4.7140 ha        1 YR3      0.135000
     65 H19         3.3380   -1.9610    0.1210 hc        1 YR3      0.045367
     66 H19A        3.6510   -1.3120    1.7910 hc        1 YR3      0.045367
     67 H19B        3.9700   -0.2800    0.3290 hc        1 YR3      0.045367
     68 H28         0.3360   -0.8510   -2.8190 h1        1 YR3      0.056200
     69 H28A        0.9870    0.8660   -2.8760 h1        1 YR3      0.056200
     70 H29         2.7160   -1.6210   -3.6220 h1        1 YR3      0.065700
     71 HO32        2.0560   -0.9580   -5.7800 ho        1 YR3      0.425000
     72 H30         2.8480    1.3990   -4.4000 h1        1 YR3      0.041700
     73 H30A        3.8940    0.5580   -3.1470 h1        1 YR3      0.041700
     74 HO31        4.8440    0.5930   -5.2590 ho        1 YR3      0.409000
     75 HO33       -8.0570   -0.6700    1.4460 ho        1 YR3      0.415000
@<TRIPOS>BOND
     1    1    2 ar  
     2    1    6 ar  
     3    1   34 1   
     4    2    3 ar  
     5    2   28 1   
     6    3    4 ar  
     7    3   27 1   
     8    4    5 ar  
     9    4   35 1   
    10    5    6 ar  
    11    5    7 1   
    12    6   36 1   
    13    7    8 1   
    14    7    9 1   
    15    7   10 1   
    16    8   13 ar  
    17    8   26 ar  
    18    9   12 1   
    19    9   37 1   
    20    9   38 1   
    21   10   11 1   
    22   10   39 1   
    23   10   40 1   
    24   11   41 1   
    25   11   42 1   
    26   11   43 1   
    27   12   44 1   
    28   12   45 1   
    29   12   46 1   
    30   13   14 ar  
    31   13   47 1   
    32   14   15 ar  
    33   14   24 1   
    34   15   23 1   
    35   15   25 ar  
    36   16   17 1   
    37   16   75 1   
    38   17   18 1   
    39   17   22 1   
    40   17   48 1   
    41   18   19 1   
    42   18   20 1   
    43   18   21 1   
    44   19   49 1   
    45   19   50 1   
    46   19   51 1   
    47   20   52 1   
    48   20   53 1   
    49   20   54 1   
    50   21   55 1   
    51   21   56 1   
    52   21   57 1   
    53   22   23 1   
    54   22   58 1   
    55   22   59 1   
    56   24   60 1   
    57   24   61 1   
    58   24   62 1   
    59   25   26 ar  
    60   25   63 1   
    61   26   64 1   
    62   27   65 1   
    63   27   66 1   
    64   27   67 1   
    65   28   29 1   
    66   29   30 1   
    67   29   68 1   
    68   29   69 1   
    69   30   31 1   
    70   30   32 1   
    71   30   70 1   
    72   31   71 1   
    73   32   33 1   
    74   32   72 1   
    75   32   73 1   
    76   33   74 1   
@<TRIPOS>SUBSTRUCTURE
     1 YR3         1 TEMP              0 ****  ****    0 ROOT
