@<TRIPOS>MOLECULE
molecule
   75    76     1     0     0
SMALL
bcc


@<TRIPOS>ATOM
      1 C1           0.0000     0.0000     0.0000 ca         1 YR3      -0.218000
      2 C2           1.3870     0.0000     0.0000 ca         1 YR3       0.137100
      3 C3           2.0790     0.0000     1.2020 ca         1 YR3      -0.109300
      4 C4           1.3850    -0.0010     2.3970 ca         1 YR3      -0.090000
      5 C5           0.0030    -0.0010     2.3940 ca         1 YR3      -0.102300
      6 C6          -0.6890    -0.0000     1.1970 ca         1 YR3      -0.098000
      7 C7          -0.7520    -0.0040     3.7000 c3         1 YR3       0.041600
      8 C8          -2.2210    -0.1990     3.4290 ca         1 YR3      -0.110300
      9 C9          -0.2390    -1.1430     4.5820 c3         1 YR3      -0.069900
     10 C10         -0.5370     1.3320     4.4140 c3         1 YR3      -0.069900
     11 C11         -0.9010     2.4800     3.4700 c3         1 YR3      -0.099100
     12 C12         -0.3260    -2.4640     3.8140 c3         1 YR3      -0.099100
     13 C13         -2.6500    -1.2950     2.7040 ca         1 YR3      -0.097000
     14 C14         -3.9970    -1.4760     2.4550 ca         1 YR3      -0.117300
     15 C15         -4.9190    -0.5570     2.9350 ca         1 YR3       0.142100
     16 O33         -8.7310    -0.0480     1.4240 oh         1 YR3      -0.597800
     17 C22         -8.5760    -0.1130     2.8430 c3         1 YR3       0.160100
     18 C23         -9.5400     0.8720     3.5070 c3         1 YR3      -0.083000
     19 C26        -10.9780     0.5070     3.1340 c3         1 YR3      -0.084100
     20 C25         -9.3730     0.8020     5.0270 c3         1 YR3      -0.084100
     21 C24         -9.2320     2.2910     3.0240 c3         1 YR3      -0.084100
     22 C21         -7.1370     0.2530     3.2150 c3         1 YR3       0.127400
     23 O20         -6.2450    -0.7330     2.6910 os         1 YR3      -0.327900
     24 C18         -4.4640    -2.6700     1.6640 c3         1 YR3      -0.034800
     25 C16         -4.4860     0.5410     3.6620 ca         1 YR3      -0.221000
     26 C17         -3.1390     0.7160     3.9130 ca         1 YR3      -0.096000
     27 C19          3.5860    -0.0000     1.2060 c3         1 YR3      -0.035800
     28 O27          2.0670     0.0010    -1.1770 os         1 YR3      -0.320900
     29 C28          1.2900     0.0010    -2.3760 c3         1 YR3       0.138400
     30 C29          2.2220     0.0020    -3.5880 c3         1 YR3       0.152100
     31 O32          2.9640    -1.2190    -3.6190 oh         1 YR3      -0.591800
     32 C30          1.3940     0.1280    -4.8690 c3         1 YR3       0.118400
     33 O31          2.2690     0.2450    -5.9930 oh         1 YR3      -0.609800
     34 H1          -0.5420     0.0000    -0.9380 ha         1 YR3       0.132000
     35 H4           1.9250    -0.0010     3.3360 ha         1 YR3       0.136000
     36 H6          -1.7730    -0.0000     1.1980 ha         1 YR3       0.150000
     37 H9           0.7910    -0.9520     4.8570 hc         1 YR3       0.043450
     38 H9A         -0.8450    -1.2060     5.4780 hc         1 YR3       0.043450
     39 H10          0.5010     1.4220     4.7080 hc         1 YR3       0.043450
     40 H10A        -1.1670     1.3760     5.2950 hc         1 YR3       0.043450
     41 H11          0.0050     2.9150     3.0650 hc         1 YR3       0.038367
     42 H11A        -1.4510     3.2360     4.0170 hc         1 YR3       0.038367
     43 H11B        -1.5130     2.1020     2.6610 hc         1 YR3       0.038367
     44 H12          0.4280    -3.1470     4.1850 hc         1 YR3       0.038367
     45 H12A        -0.1610    -2.2800     2.7600 hc         1 YR3       0.038367
     46 H12B        -1.3080    -2.8990     3.9550 hc         1 YR3       0.038367
     47 H13         -1.9300    -2.0120     2.3290 ha         1 YR3       0.152000
     48 H22         -8.7930    -1.1170     3.1840 h1         1 YR3       0.044700
     49 H26        -11.6660     1.1230     3.7010 hc         1 YR3       0.039144
     50 H26A       -11.1560    -0.5370     3.3630 hc         1 YR3       0.039144
     51 H26B       -11.1310     0.6760     2.0750 hc         1 YR3       0.039144
     52 H25         -9.2460    -0.2300     5.3290 hc         1 YR3       0.039144
     53 H25A        -8.5010     1.3740     5.3200 hc         1 YR3       0.039144
     54 H25B       -10.2530     1.2140     5.5060 hc         1 YR3       0.039144
     55 H24         -8.3500     2.6610     3.5310 hc         1 YR3       0.039144
     56 H24A       -10.0730     2.9380     3.2440 hc         1 YR3       0.039144
     57 H24B        -9.0560     2.2780     1.9550 hc         1 YR3       0.039144
     58 H21         -6.8910     1.2210     2.7960 h1         1 YR3       0.047700
     59 H21A        -7.0410     0.2900     4.2930 h1         1 YR3       0.047700
     60 H18         -5.1570    -3.2510     2.2610 hc         1 YR3       0.043367
     61 H18A        -3.6110    -3.2840     1.4010 hc         1 YR3       0.043367
     62 H18B        -4.9590    -2.3340     0.7610 hc         1 YR3       0.043367
     63 H16         -5.2050     1.2590     4.0400 ha         1 YR3       0.133000
     64 H17         -2.8010     1.5730     4.4820 ha         1 YR3       0.141000
     65 H19          3.9450     0.0550     2.2260 hc         1 YR3       0.043367
     66 H19A         3.9480    -0.9120     0.7450 hc         1 YR3       0.043367
     67 H19B         3.9490     0.8550     0.6480 hc         1 YR3       0.043367
     68 H28          0.6640    -0.8830    -2.4010 h1         1 YR3       0.045200
     69 H28A         0.6650     0.8860    -2.4010 h1         1 YR3       0.045200
     70 H29          2.9070     0.8380    -3.5170 h1         1 YR3       0.054700
     71 HO32         3.8410    -1.0470    -3.9200 ho         1 YR3       0.414000
     72 H30          0.7660     1.0080    -4.8070 h1         1 YR3       0.031700
     73 H30A         0.7730    -0.7520    -4.9850 h1         1 YR3       0.031700
     74 HO31         1.7700     0.4820    -6.7560 ho         1 YR3       0.408000
     75 HO33        -9.1020    -0.8560     1.1110 ho         1 YR3       0.405000
@<TRIPOS>BOND
     1     1     2 ar
     2     1     6 ar
     3     2     3 ar
     4     2    28 1
     5     3     4 ar
     6     3    27 1
     7     4     5 ar
     8     5     6 ar
     9     5     7 1
    10     7     8 1
    11     7     9 1
    12     7    10 1
    13     8    13 ar
    14     8    26 ar
    15     9    12 1
    16    10    11 1
    17    13    14 ar
    18    14    15 ar
    19    14    24 1
    20    15    23 1
    21    15    25 ar
    22    16    17 1
    23    17    18 1
    24    17    22 1
    25    18    19 1
    26    18    20 1
    27    18    21 1
    28    22    23 1
    29    25    26 ar
    30    28    29 1
    31    29    30 1
    32    30    31 1
    33    30    32 1
    34    32    33 1
    35     1    34 1
    36     4    35 1
    37     6    36 1
    38     9    37 1
    39     9    38 1
    40    10    39 1
    41    10    40 1
    42    11    41 1
    43    11    42 1
    44    11    43 1
    45    12    44 1
    46    12    45 1
    47    12    46 1
    48    13    47 1
    49    16    75 1
    50    17    48 1
    51    19    49 1
    52    19    50 1
    53    19    51 1
    54    20    52 1
    55    20    53 1
    56    20    54 1
    57    21    55 1
    58    21    56 1
    59    21    57 1
    60    22    58 1
    61    22    59 1
    62    24    60 1
    63    24    61 1
    64    24    62 1
    65    25    63 1
    66    26    64 1
    67    27    65 1
    68    27    66 1
    69    27    67 1
    70    29    68 1
    71    29    69 1
    72    30    70 1
    73    31    71 1
    74    32    72 1
    75    32    73 1
    76    33    74 1
@<TRIPOS>SUBSTRUCTURE
     1 YR3         1 TEMP              0 ****  ****    0 ROOT
