@<TRIPOS>MOLECULE
YR4
   78    79     1     0     0
SMALL
bcc


@<TRIPOS>ATOM
      1 C1          0.2530    0.5980   -0.0370 ca        1 YR4     -0.102000
      2 C2          1.6420    0.6440    0.0270 ca        1 YR4     -0.193000
      3 C3          2.2940    0.2580    1.2030 ca        1 YR4      0.110100
      4 C4          1.5500   -0.1620    2.3260 ca        1 YR4     -0.097300
      5 C5          0.1570   -0.1920    2.2340 ca        1 YR4     -0.105000
      6 C6         -0.5110    0.1680    1.0570 ca        1 YR4     -0.087300
      7 C7         -2.0190    0.1800    0.9810 c3        1 YR4      0.052600
      8 C8         -2.5210   -0.1630   -0.4020 ca        1 YR4     -0.094300
      9 C9         -1.8420   -1.1070   -1.1830 ca        1 YR4     -0.099000
     10 C10        -3.7090    0.3860   -0.9020 ca        1 YR4     -0.101000
     11 C11        -4.2070    0.0350   -2.1580 ca        1 YR4     -0.101300
     12 C12        -3.4900   -0.9040   -2.9310 ca        1 YR4      0.122100
     13 C13        -2.3120   -1.4760   -2.4410 ca        1 YR4     -0.198000
     14 C14        -2.6690   -0.8260    1.9550 c3        1 YR4     -0.069900
     15 C15        -2.2420   -2.2560    1.7580 c3        1 YR4     -0.098600
     16 C16        -2.4770    1.5790    1.4470 c3        1 YR4     -0.069900
     17 C17        -2.0560    2.7100    0.5460 c3        1 YR4     -0.098600
     18 C18         2.2360   -0.5400    3.5820 c3        1 YR4     -0.043800
     19 C19        -5.4540    0.6350   -2.6800 c3        1 YR4     -0.041800
     20 O20        -4.0260   -1.1780   -4.1760 os        1 YR4     -0.345900
     21 O21         3.6650    0.3150    1.3830 os        1 YR4     -0.343900
     22 C22        -3.4740   -2.3110   -4.8590 c3        1 YR4      0.089400
     23 C23        -4.3900   -2.5180   -6.0720 c3        1 YR4      0.150100
     24 C24        -3.9140   -3.6690   -6.9810 c3        1 YR4     -0.047000
     25 O25        -5.7070   -2.8290   -5.6360 oh        1 YR4     -0.599800
     26 C26        -3.8940   -4.9850   -6.2210 c3        1 YR4     -0.088433
     27 C27        -4.8860   -3.7790   -8.1500 c3        1 YR4     -0.088433
     28 C28        -2.5250   -3.3580   -7.5170 c3        1 YR4     -0.088433
     29 C29         4.4790    0.1740    0.2030 c3        1 YR4      0.099100
     30 C30         5.6820   -0.6690    0.6050 c3        1 YR4     -0.086400
     31 C31         4.9220    1.5740   -0.2390 c3        1 YR4      0.113400
     32 C32         5.2700   -2.0920    0.9350 c3        1 YR4      0.131400
     33 O33         5.5920    2.2720    0.7870 oh        1 YR4     -0.592800
     34 O34         6.4580   -2.8100    1.2270 oh        1 YR4     -0.600800
     35 H1         -0.2530    0.9150   -0.9640 ha        1 YR4      0.145000
     36 H2          2.2140    0.9940   -0.8440 ha        1 YR4      0.137000
     37 H5         -0.4140   -0.5090    3.1210 ha        1 YR4      0.139000
     38 H9         -0.9200   -1.5710   -0.7970 ha        1 YR4      0.142000
     39 H10        -4.2810    1.1100   -0.3020 ha        1 YR4      0.138000
     40 H13        -1.7520   -2.2130   -3.0330 ha        1 YR4      0.137000
     41 H14        -3.7820   -0.7560    1.8190 hc        1 YR4      0.041950
     42 H14A       -2.4510   -0.5070    3.0090 hc        1 YR4      0.041950
     43 H15        -2.5470   -2.6250    0.7490 hc        1 YR4      0.038367
     44 H15A       -2.7210   -2.9050    2.5310 hc        1 YR4      0.038367
     45 H15B       -1.1330   -2.3600    1.8460 hc        1 YR4      0.038367
     46 H16        -2.0480    1.7500    2.4720 hc        1 YR4      0.041950
     47 H16A       -3.5930    1.5790    1.5580 hc        1 YR4      0.041950
     48 H17        -2.4280    2.5540   -0.4950 hc        1 YR4      0.038367
     49 H17A       -2.4690    3.6740    0.9300 hc        1 YR4      0.038367
     50 H17B       -0.9420    2.7930    0.5100 hc        1 YR4      0.038367
     51 H18         1.5640   -1.1320    4.2490 hc        1 YR4      0.046700
     52 H18A        3.1500   -1.1450    3.3580 hc        1 YR4      0.046700
     53 H18B        2.5620    0.3800    4.1300 hc        1 YR4      0.046700
     54 H19        -5.2110    1.4100   -3.4510 hc        1 YR4      0.045367
     55 H19A       -6.0860   -0.1480   -3.1690 hc        1 YR4      0.045367
     56 H19B       -6.0450    1.1170   -1.8640 hc        1 YR4      0.045367
     57 H22        -2.4270   -2.0770   -5.1810 h1        1 YR4      0.053700
     58 H22A       -3.4890   -3.2070   -4.1870 h1        1 YR4      0.053700
     59 H23        -4.4180   -1.5630   -6.6710 h1        1 YR4      0.046700
     60 HO25       -5.9710   -2.1190   -5.0370 ho        1 YR4      0.415000
     61 H26        -3.6860   -5.8290   -6.9230 hc        1 YR4      0.039367
     62 H26A       -4.8840   -5.1560   -5.7320 hc        1 YR4      0.039367
     63 H26B       -3.1010   -4.9770   -5.4350 hc        1 YR4      0.039367
     64 H27        -4.5880   -4.6210   -8.8200 hc        1 YR4      0.039367
     65 H27A       -4.8880   -2.8330   -8.7420 hc        1 YR4      0.039367
     66 H27B       -5.9190   -3.9660   -7.7690 hc        1 YR4      0.039367
     67 H28        -1.7600   -3.4260   -6.7080 hc        1 YR4      0.039367
     68 H28A       -2.4950   -2.3320   -7.9560 hc        1 YR4      0.039367
     69 H28B       -2.2560   -4.0930   -8.3140 hc        1 YR4      0.039367
     70 H29         3.9090   -0.3290   -0.6230 h1        1 YR4      0.061700
     71 H30         6.4190   -0.6730   -0.2390 hc        1 YR4      0.074700
     72 H30A        6.1840   -0.2040    1.4930 hc        1 YR4      0.074700
     73 H31         4.0260    2.1640   -0.5760 h1        1 YR4      0.051200
     74 H31A        5.6650    1.4990   -1.0760 h1        1 YR4      0.051200
     75 H32         4.7470   -2.5680    0.0610 h1        1 YR4      0.025700
     76 H32A        4.5790   -2.1000    1.8210 h1        1 YR4      0.025700
     77 HO33        5.0350    2.2220    1.5760 ho        1 YR4      0.414000
     78 HO34        6.1840   -3.6840    1.5270 ho        1 YR4      0.401000
@<TRIPOS>BOND
     1    1    2 ar  
     2    1    6 ar  
     3    1   35 1   
     4    2    3 ar  
     5    2   36 1   
     6    3    4 ar  
     7    3   21 1   
     8    4    5 ar  
     9    4   18 1   
    10    5    6 ar  
    11    5   37 1   
    12    6    7 1   
    13    7    8 1   
    14    7   14 1   
    15    7   16 1   
    16    8    9 ar  
    17    8   10 ar  
    18    9   13 ar  
    19    9   38 1   
    20   10   11 ar  
    21   10   39 1   
    22   11   12 ar  
    23   11   19 1   
    24   12   13 ar  
    25   12   20 1   
    26   13   40 1   
    27   14   15 1   
    28   14   41 1   
    29   14   42 1   
    30   15   43 1   
    31   15   44 1   
    32   15   45 1   
    33   16   17 1   
    34   16   46 1   
    35   16   47 1   
    36   17   48 1   
    37   17   49 1   
    38   17   50 1   
    39   18   51 1   
    40   18   52 1   
    41   18   53 1   
    42   19   54 1   
    43   19   55 1   
    44   19   56 1   
    45   20   22 1   
    46   21   29 1   
    47   22   23 1   
    48   22   57 1   
    49   22   58 1   
    50   23   24 1   
    51   23   25 1   
    52   23   59 1   
    53   24   26 1   
    54   24   27 1   
    55   24   28 1   
    56   25   60 1   
    57   26   61 1   
    58   26   62 1   
    59   26   63 1   
    60   27   64 1   
    61   27   65 1   
    62   27   66 1   
    63   28   67 1   
    64   28   68 1   
    65   28   69 1   
    66   29   30 1   
    67   29   31 1   
    68   29   70 1   
    69   30   32 1   
    70   30   71 1   
    71   30   72 1   
    72   31   33 1   
    73   31   73 1   
    74   31   74 1   
    75   32   34 1   
    76   32   75 1   
    77   32   76 1   
    78   33   77 1   
    79   34   78 1   
@<TRIPOS>SUBSTRUCTURE
     1 YR4         1 TEMP              0 ****  ****    0 ROOT
