@<TRIPOS>MOLECULE
molecule
   78    79     1     0     0
SMALL
bcc


@<TRIPOS>ATOM
      1 C1           0.0000     0.0000     0.0000 ca         1 YR4      -0.097000
      2 C2           1.3810     0.0000     0.0000 ca         1 YR4      -0.227000
      3 C3           2.0740     0.0000     1.2020 ca         1 YR4       0.135100
      4 C4           1.3770     0.0020     2.4020 ca         1 YR4      -0.109300
      5 C5          -0.0050     0.0020     2.3960 ca         1 YR4      -0.089000
      6 C6          -0.6930     0.0010     1.1960 ca         1 YR4      -0.102300
      7 C7          -2.1990     0.0020     1.1940 c3         1 YR4       0.040600
      8 C8          -2.7000    -0.2800    -0.2000 ca         1 YR4      -0.109300
      9 C9          -2.2430    -1.3900    -0.8850 ca         1 YR4      -0.097000
     10 C10         -3.6190     0.5690    -0.7880 ca         1 YR4      -0.094000
     11 C11         -4.0780     0.3130    -2.0650 ca         1 YR4      -0.114300
     12 C12         -3.6180    -0.7990    -2.7570 ca         1 YR4       0.142100
     13 C13         -2.7000    -1.6510    -2.1630 ca         1 YR4      -0.223000
     14 C14         -2.7120    -1.0790     2.1480 c3         1 YR4      -0.069900
     15 C15         -2.0860    -2.4260     1.7770 c3         1 YR4      -0.098600
     16 C16         -2.7100     1.3700     1.6510 c3         1 YR4      -0.069900
     17 C17         -2.0670     2.4660     0.8000 c3         1 YR4      -0.098600
     18 C18          2.1250     0.0010     3.7090 c3         1 YR4      -0.035800
     19 C19         -5.0810     1.2380    -2.7060 c3         1 YR4      -0.034800
     20 O20         -4.0690    -1.0530    -4.0140 os         1 YR4      -0.332900
     21 O21          3.4320    -0.0000     1.2050 os         1 YR4      -0.311900
     22 C22         -3.5510    -2.2140    -4.6660 c3         1 YR4       0.114400
     23 C23         -4.1700    -2.3340    -6.0600 c3         1 YR4       0.160100
     24 C24         -3.5240    -3.5050    -6.8050 c3         1 YR4      -0.071000
     25 O25         -5.5760    -2.5650    -5.9390 oh         1 YR4      -0.598800
     26 C26         -3.7650    -4.8000    -6.0270 c3         1 YR4      -0.084100
     27 C27         -4.1430    -3.6250    -8.2000 c3         1 YR4      -0.084100
     28 C28         -2.0200    -3.2590    -6.9350 c3         1 YR4      -0.084100
     29 C29          4.0840    -0.1200    -0.0620 c3         1 YR4       0.148100
     30 C30          5.4880    -0.6930     0.1400 c3         1 YR4      -0.072400
     31 C31          4.1830     1.2590    -0.7170 c3         1 YR4       0.114400
     32 C32          5.3850    -2.1210     0.6790 c3         1 YR4       0.138400
     33 O33          5.0330     2.0980     0.0670 oh         1 YR4      -0.595800
     34 O34          6.6980    -2.6550     0.8670 oh         1 YR4      -0.611800
     35 H1          -0.5410    -0.0000    -0.9390 ha         1 YR4       0.147000
     36 H2           1.9230    -0.0010    -0.9380 ha         1 YR4       0.131000
     37 H5          -0.5500     0.0030     3.3330 ha         1 YR4       0.137000
     38 H9          -1.5260    -2.0560    -0.4200 ha         1 YR4       0.145000
     39 H10         -3.9780     1.4360    -0.2480 ha         1 YR4       0.146000
     40 H13         -2.3400    -2.5200    -2.7000 ha         1 YR4       0.134000
     41 H14         -3.7900    -1.1480     2.0690 hc         1 YR4       0.044450
     42 H14A        -2.4400    -0.8220     3.1640 hc         1 YR4       0.044450
     43 H15         -1.9990    -3.0400     2.6650 hc         1 YR4       0.038033
     44 H15A        -2.7130    -2.9280     1.0500 hc         1 YR4       0.038033
     45 H15B        -1.1020    -2.2620     1.3530 hc         1 YR4       0.038033
     46 H16         -2.4520     1.5220     2.6920 hc         1 YR4       0.044450
     47 H16A        -3.7870     1.4100     1.5370 hc         1 YR4       0.044450
     48 H17         -2.7860     3.2570     0.6260 hc         1 YR4       0.038033
     49 H17A        -1.2060     2.8680     1.3200 hc         1 YR4       0.038033
     50 H17B        -1.7520     2.0490    -0.1490 hc         1 YR4       0.038033
     51 H18          1.4280     0.1500     4.5250 hc         1 YR4       0.044700
     52 H18A         2.6310    -0.9490     3.8350 hc         1 YR4       0.044700
     53 H18B         2.8550     0.8010     3.7080 hc         1 YR4       0.044700
     54 H19         -4.6210     1.7410    -3.5490 hc         1 YR4       0.043033
     55 H19A        -5.4080     1.9740    -1.9820 hc         1 YR4       0.043033
     56 H19B        -5.9330     0.6650    -3.0500 hc         1 YR4       0.043033
     57 H22         -3.7970    -3.0950    -4.0840 h1         1 YR4       0.047700
     58 H22A        -2.4750    -2.1290    -4.7550 h1         1 YR4       0.047700
     59 H23         -4.0000    -1.4170    -6.6110 h1         1 YR4       0.043700
     60 HO25        -6.0440    -1.7770    -6.1630 ho         1 YR4       0.408000
     61 H26         -3.6270    -5.6480    -6.6860 hc         1 YR4       0.039144
     62 H26A        -4.7760    -4.8060    -5.6380 hc         1 YR4       0.039144
     63 H26B        -3.0620    -4.8640    -5.2050 hc         1 YR4       0.039144
     64 H27         -4.0650    -2.6740    -8.7130 hc         1 YR4       0.039144
     65 H27A        -5.1870    -3.9020    -8.1090 hc         1 YR4       0.039144
     66 H27B        -3.6160    -4.3850    -8.7640 hc         1 YR4       0.039144
     67 H28         -1.5290    -3.5250    -6.0070 hc         1 YR4       0.039144
     68 H28A        -1.8420    -2.2120    -7.1490 hc         1 YR4       0.039144
     69 H28B        -1.6230    -3.8650    -7.7400 hc         1 YR4       0.039144
     70 H29          3.5130    -0.7830    -0.7000 h1         1 YR4       0.052700
     71 H30          6.0140    -0.7010    -0.8080 hc         1 YR4       0.075200
     72 H30A         6.0310    -0.0780     0.8480 hc         1 YR4       0.075200
     73 H31          3.1960     1.7010    -0.7790 h1         1 YR4       0.031200
     74 H31A         4.5960     1.1570    -1.7130 h1         1 YR4       0.031200
     75 H32          4.8440    -2.7360    -0.0290 h1         1 YR4       0.024200
     76 H32A         4.8600    -2.1130     1.6260 h1         1 YR4       0.024200
     77 HO33         5.1310     2.9330    -0.3600 ho         1 YR4       0.402000
     78 HO34         6.6350    -3.5480     1.1620 ho         1 YR4       0.402000
@<TRIPOS>BOND
     1     1     2 ar
     2     1     6 ar
     3     2     3 ar
     4     3     4 ar
     5     3    21 1
     6     4     5 ar
     7     4    18 1
     8     5     6 ar
     9     6     7 1
    10     7     8 1
    11     7    14 1
    12     7    16 1
    13     8     9 ar
    14     8    10 ar
    15     9    13 ar
    16    10    11 ar
    17    11    12 ar
    18    11    19 1
    19    12    13 ar
    20    12    20 1
    21    14    15 1
    22    16    17 1
    23    20    22 1
    24    21    29 1
    25    22    23 1
    26    23    24 1
    27    23    25 1
    28    24    26 1
    29    24    27 1
    30    24    28 1
    31    29    30 1
    32    29    31 1
    33    30    32 1
    34    31    33 1
    35    32    34 1
    36     1    35 1
    37     2    36 1
    38     5    37 1
    39     9    38 1
    40    10    39 1
    41    13    40 1
    42    14    41 1
    43    14    42 1
    44    15    43 1
    45    15    44 1
    46    15    45 1
    47    16    46 1
    48    16    47 1
    49    17    48 1
    50    17    49 1
    51    17    50 1
    52    18    51 1
    53    18    52 1
    54    18    53 1
    55    19    54 1
    56    19    55 1
    57    19    56 1
    58    22    57 1
    59    22    58 1
    60    23    59 1
    61    25    60 1
    62    26    61 1
    63    26    62 1
    64    26    63 1
    65    27    64 1
    66    27    65 1
    67    27    66 1
    68    28    67 1
    69    28    68 1
    70    28    69 1
    71    29    70 1
    72    30    71 1
    73    30    72 1
    74    31    73 1
    75    31    74 1
    76    32    75 1
    77    32    76 1
    78    33    77 1
    79    34    78 1
@<TRIPOS>SUBSTRUCTURE
     1 YR4         1 TEMP              0 ****  ****    0 ROOT
