@<TRIPOS>MOLECULE
YRA
   38    39     1     0     0
SMALL
bcc


@<TRIPOS>ATOM
      1 N1           0.0000     0.0000     0.0000 n7         1 YRA      -0.579200
      2 C2           1.4690     0.0000     0.0000 c3         1 YRA       0.154800
      3 C4          -2.0330    -0.0000     1.3310 ca         1 YRA      -0.116300
      4 C5          -2.7210     1.1990     1.3070 ca         1 YRA      -0.074000
      5 C6          -4.1010     1.2050     1.2650 ca         1 YRA      -0.083000
      6 C8          -4.1020    -1.2060     1.2710 ca         1 YRA      -0.033600
      7 C7          -4.8010     0.0010     1.2470 cp         1 YRA       0.000000
      8 C10         -6.2840     0.0020     1.2010 cp         1 YRA      -0.061000
      9 C15         -7.0110     0.7830     2.0980 ca         1 YRA      -0.086000
     10 C14         -8.3900     0.7810     2.0510 ca         1 YRA      -0.096500
     11 C13         -9.0510     0.0040     1.1160 ca         1 YRA      -0.086000
     12 C12         -8.3350    -0.7750     0.2250 ca         1 YRA      -0.096500
     13 C11         -6.9550    -0.7750     0.2590 ca         1 YRA      -0.086000
     14 C9          -2.7220    -1.2010     1.3130 ca         1 YRA      -0.094000
     15 C3          -0.5260     0.0000     1.3710 c3         1 YRA       0.214100
     16 C1           1.9790    -0.0000    -1.4430 c3         1 YRA      -0.093400
     17 C            3.4850     0.0000    -1.4430 c          1 YRA       0.310100
     18 O            4.0920     0.0000    -0.3930 o          1 YRA      -0.389100
     19 N            4.1590     0.0010    -2.6100 nz         1 YRA       0.196600
     20 H1          -0.3340    -0.8090    -0.4860 hn         1 YRA       0.258800
     21 H3           1.8300    -0.8840     0.5110 h1         1 YRA       0.028200
     22 H4           1.8300     0.8850     0.5110 h1         1 YRA       0.028200
     23 H5          -2.1770     2.1350     1.3210 ha         1 YRA       0.108000
     24 H6          -4.6390     2.1460     1.2460 ha         1 YRA       0.119000
     25 H7          -6.4930     1.3910     2.8300 ha         1 YRA       0.109000
     26 H8          -8.9560     1.3880     2.7460 ha         1 YRA       0.107500
     27 H9         -10.1340     0.0040     1.0840 ha         1 YRA       0.107000
     28 H10         -8.8580    -1.3790    -0.5060 ha         1 YRA       0.107500
     29 H11         -6.3950    -1.3850    -0.4390 ha         1 YRA       0.109000
     30 H12         -2.1770    -2.1370     1.3320 ha         1 YRA       0.111000
     31 H13         -0.1790     0.8850     1.8910 h1         1 YRA       0.016700
     32 H14         -0.1790    -0.8840     1.8910 h1         1 YRA       0.016700
     33 H15          1.6180    -0.8850    -1.9540 hc         1 YRA       0.062700
     34 H16          1.6170     0.8840    -1.9540 hc         1 YRA       0.062700
     35 H17          3.9170    -0.8160    -3.1360 hn         1 YRA       0.248133
     36 H18          5.1430    -0.0000    -2.4270 hn         1 YRA       0.248133
     37 Cl          -4.9650    -2.7110     1.2480 cl         1 YRA       0.001600
     38 HN3          3.9190     0.8190    -3.1350 hn         1 YRA       0.248133
@<TRIPOS>BOND
     1     1     2 1   
     2     1    15 1   
     3     1    20 1   
     4     2    16 1   
     5     2    21 1   
     6     2    22 1   
     7     3     4 ar  
     8     3    14 ar  
     9     3    15 1   
    10     4     5 ar  
    11     4    23 1   
    12     5     7 ar  
    13     5    24 1   
    14     6     7 ar  
    15     6    14 ar  
    16     6    37 1   
    17     7     8 1   
    18     8     9 ar  
    19     8    13 ar  
    20     9    10 ar  
    21     9    25 1   
    22    10    11 ar  
    23    10    26 1   
    24    11    12 ar  
    25    11    27 1   
    26    12    13 ar  
    27    12    28 1   
    28    13    29 1   
    29    14    30 1   
    30    15    31 1   
    31    15    32 1   
    32    16    17 1   
    33    16    33 1   
    34    16    34 1   
    35    17    18 2   
    36    17    19 1   
    37    19    35 1   
    38    19    36 1   
    39    19    38 1   
@<TRIPOS>SUBSTRUCTURE
     1 YRA         1 TEMP              0 ****  ****    0 ROOT
