@<TRIPOS>MOLECULE
molecule
   38    39     1     0     0
SMALL
bcc


@<TRIPOS>ATOM
      1 N1           0.0000     0.0000     0.0000 n7         1 YRA      -0.814200
      2 C2           1.4690     0.0000     0.0000 c3         1 YRA       0.168800
      3 C4          -2.0330    -0.0000     1.3310 ca         1 YRA      -0.103300
      4 C5          -2.7210     1.1990     1.3070 ca         1 YRA      -0.101000
      5 C6          -4.1010     1.2050     1.2650 ca         1 YRA      -0.109000
      6 C8          -4.1020    -1.2060     1.2710 ca         1 YRA       0.033400
      7 C7          -4.8010     0.0010     1.2470 cp         1 YRA      -0.004000
      8 C10         -6.2840     0.0020     1.2010 cp         1 YRA      -0.064000
      9 C15         -7.0110     0.7830     2.0980 ca         1 YRA      -0.104500
     10 C14         -8.3900     0.7810     2.0510 ca         1 YRA      -0.128000
     11 C13         -9.0510     0.0040     1.1160 ca         1 YRA      -0.112000
     12 C12         -8.3350    -0.7750     0.2250 ca         1 YRA      -0.128000
     13 C11         -6.9550    -0.7750     0.2590 ca         1 YRA      -0.104500
     14 C9          -2.7220    -1.2010     1.3130 ca         1 YRA      -0.118000
     15 C3          -0.5260     0.0000     1.3710 c3         1 YRA       0.212100
     16 C1           1.9790    -0.0000    -1.4430 c3         1 YRA      -0.163400
     17 C            3.4850     0.0000    -1.4430 c          1 YRA       0.478100
     18 O            4.0920     0.0000    -0.3930 o          1 YRA      -0.389100
     19 N            4.1590     0.0010    -2.6100 nz         1 YRA      -0.686400
     20 H1          -0.3340    -0.8090    -0.4860 hn         1 YRA       0.361800
     21 H3           1.8300    -0.8840     0.5110 h1         1 YRA       0.059200
     22 H4           1.8300     0.8850     0.5110 h1         1 YRA       0.059200
     23 H5          -2.1770     2.1350     1.3210 ha         1 YRA       0.138000
     24 H6          -4.6390     2.1460     1.2460 ha         1 YRA       0.151000
     25 H7          -6.4930     1.3910     2.8300 ha         1 YRA       0.135000
     26 H8          -8.9560     1.3880     2.7460 ha         1 YRA       0.136500
     27 H9         -10.1340     0.0040     1.0840 ha         1 YRA       0.136000
     28 H10         -8.8580    -1.3790    -0.5060 ha         1 YRA       0.136500
     29 H11         -6.3950    -1.3850    -0.4390 ha         1 YRA       0.135000
     30 H12         -2.1770    -2.1370     1.3320 ha         1 YRA       0.138000
     31 H13         -0.1790     0.8850     1.8910 h1         1 YRA       0.049200
     32 H14         -0.1790    -0.8840     1.8910 h1         1 YRA       0.049200
     33 H15          1.6180    -0.8850    -1.9540 hc         1 YRA       0.101700
     34 H16          1.6170     0.8840    -1.9540 hc         1 YRA       0.101700
     35 H17          3.9170    -0.8160    -3.1360 hn         1 YRA       0.479467
     36 H18          5.1430    -0.0000    -2.4270 hn         1 YRA       0.479467
     37 Cl          -4.9650    -2.7110     1.2480 cl         1 YRA      -0.085400
     38 HN3          3.9190     0.8190    -3.1350 hn         1 YRA       0.479467
@<TRIPOS>BOND
     1    10     9 ar
     2    10    11 ar
     3     9     8 ar
     4    11    12 ar
     5     8     7 1
     6     8    13 ar
     7    12    13 ar
     8     5     7 ar
     9     5     4 ar
    10     7     6 ar
    11     4     3 ar
    12     6    37 1
    13     6    14 ar
    14     3    14 ar
    15     3    15 1
    16    15     1 1
    17     2     1 1
    18     2    16 1
    19    18    17 2
    20    17    16 1
    21    17    19 1
    22     1    20 1
    23     2    21 1
    24     2    22 1
    25     4    23 1
    26     5    24 1
    27     9    25 1
    28    10    26 1
    29    11    27 1
    30    12    28 1
    31    13    29 1
    32    14    30 1
    33    15    31 1
    34    15    32 1
    35    16    33 1
    36    16    34 1
    37    19    35 1
    38    19    36 1
    39    38    19 1
@<TRIPOS>SUBSTRUCTURE
     1 YRA         1 TEMP              0 ****  ****    0 ROOT
