@<TRIPOS>MOLECULE
molecule
   31    32     1     0     0
SMALL
bcc


@<TRIPOS>ATOM
      1 CAK          0.0000     0.0000     0.0000 ca         1 YRG      -0.185000
      2 CAI          1.3820     0.0000     0.0000 ca         1 YRG      -0.091000
      3 CAP          2.0750     0.0000     1.1970 ca         1 YRG      -0.033600
      4 ClAC         3.8110     0.0010     1.1950 cl         1 YRG      -0.159400
      5 CAJ          1.3860     0.0010     2.3970 ca         1 YRG      -0.091000
      6 CAL          0.0040     0.0000     2.4020 ca         1 YRG      -0.185000
      7 CAR         -0.6920     0.0060     1.2020 ca         1 YRG       0.198100
      8 OAN         -2.0510     0.0050     1.2050 os         1 YRG      -0.311900
      9 CAS         -2.6980     0.1220     2.4730 c3         1 YRG       0.031100
     10 CAO         -2.8100    -1.2410     3.1070 c          1 YRG       0.867600
     11 OAB         -3.3880    -1.3760     4.3110 o          1 YRG      -0.824300
     12 OAA         -2.3810    -2.2120     2.5300 o          1 YRG      -0.824300
     13 CAM         -4.0970     0.7110     2.2800 c3         1 YRG      -0.020100
     14 CAQ         -3.9800     2.1210     1.7620 ca         1 YRG      -0.066300
     15 CAG         -3.9460     2.3570     0.4000 ca         1 YRG      -0.122000
     16 CAE         -3.8390     3.6490    -0.0760 ca         1 YRG      -0.137500
     17 CAD         -3.7660     4.7080     0.8100 ca         1 YRG      -0.150000
     18 CAF         -3.8000     4.4740     2.1720 ca         1 YRG      -0.137500
     19 CAH         -3.9130     3.1810     2.6480 ca         1 YRG      -0.122000
     20 HAK         -0.5420     0.0020    -0.9380 ha         1 YRG       0.152000
     21 HAI          1.9240    -0.0050    -0.9380 ha         1 YRG       0.128500
     22 HAJ          1.9310    -0.0010     3.3330 ha         1 YRG       0.128500
     23 HAL         -0.5350     0.0030     3.3420 ha         1 YRG       0.152000
     24 HAS         -2.1180     0.7720     3.1160 h1         1 YRG       0.041700
     25 HAM         -4.6200     0.7170     3.2290 hc         1 YRG       0.072200
     26 HAMA        -4.6470     0.1090     1.5680 hc         1 YRG       0.072200
     27 HAG         -4.0030     1.5270    -0.2940 ha         1 YRG       0.136000
     28 HAE         -3.8120     3.8330    -1.1430 ha         1 YRG       0.115000
     29 HAD         -3.6790     5.7210     0.4370 ha         1 YRG       0.112000
     30 HAF         -3.7450     5.3040     2.8670 ha         1 YRG       0.115000
     31 HAH         -3.9400     2.9970     3.7150 ha         1 YRG       0.136000
@<TRIPOS>BOND
     1     7     1 ar
     2     2     1 ar
     3     1    20 1
     4     3     2 ar
     5     2    21 1
     6     5     3 ar
     7     4     3 1
     8     5     6 ar
     9     5    22 1
    10     6     7 ar
    11     6    23 1
    12     8     7 1
    13     8     9 1
    14    13     9 1
    15     9    10 1
    16     9    24 1
    17    10    12 1
    18    10    11 1
    19    14    13 1
    20    13    25 1
    21    13    26 1
    22    19    14 ar
    23    15    14 ar
    24    16    15 ar
    25    15    27 1
    26    17    16 ar
    27    16    28 1
    28    17    18 ar
    29    17    29 1
    30    18    19 ar
    31    18    30 1
    32    19    31 1
@<TRIPOS>SUBSTRUCTURE
     1 YRG         1 TEMP              0 ****  ****    0 ROOT
