@<TRIPOS>MOLECULE
YRG
   31    32     1     0     0
SMALL
bcc


@<TRIPOS>ATOM
      1 CAK         0.0720   -0.2730    0.0220 ca        1 YRG     -0.183500
      2 CAI         1.4600   -0.2850   -0.0500 ca        1 YRG     -0.102500
      3 CAP         2.2150   -0.2530    1.1250 ca        1 YRG     -0.038600
      4 CLAC        3.9230   -0.2530    1.0290 cl        1 YRG     -0.149400
      5 CAJ         1.5900   -0.2280    2.3750 ca        1 YRG     -0.102500
      6 CAL         0.2030   -0.2210    2.4600 ca        1 YRG     -0.183500
      7 CAR        -0.5630   -0.2350    1.2810 ca        1 YRG      0.163100
      8 OAN        -1.9320   -0.2490    1.2400 os        1 YRG     -0.325900
      9 CAS        -2.6320    0.2270    2.4140 c3        1 YRG      0.015100
     10 CAO        -2.8300   -0.9120    3.4630 c         1 YRG      0.905600
     11 OAB        -3.7700   -1.7290    3.2940 o         1 YRG     -0.819800
     12 OAA        -2.0450   -0.8970    4.4520 o         1 YRG     -0.819800
     13 CAM        -3.9810    0.7170    1.8920 c3        1 YRG     -0.045100
     14 CAQ        -4.0030    2.1720    1.5890 ca        1 YRG     -0.050300
     15 CAG        -4.2220    2.6290    0.2830 ca        1 YRG     -0.131500
     16 CAE        -4.2650    3.9960    0.0100 ca        1 YRG     -0.136500
     17 CAD        -4.0900    4.9220    1.0380 ca        1 YRG     -0.154000
     18 CAF        -3.8690    4.4750    2.3410 ca        1 YRG     -0.136500
     19 CAH        -3.8270    3.1100    2.6160 ca        1 YRG     -0.131500
     20 HAK        -0.5390   -0.3010   -0.8890 ha        1 YRG      0.175500
     21 HAI         1.9570   -0.3160   -1.0300 ha        1 YRG      0.131000
     22 HAJ         2.1910   -0.2220    3.2970 ha        1 YRG      0.131000
     23 HAL        -0.3050   -0.2470    3.4460 ha        1 YRG      0.175500
     24 HAS        -2.0500    1.0660    2.8810 h1        1 YRG      0.042700
     25 HAM        -4.2500    0.1170    0.9810 hc        1 YRG      0.076200
     26 HAMA       -4.7500    0.4850    2.6780 hc        1 YRG      0.076200
     27 HAG        -4.3530    1.9020   -0.5310 ha        1 YRG      0.137000
     28 HAE        -4.4340    4.3430   -1.0190 ha        1 YRG      0.116500
     29 HAD        -4.1230    5.9980    0.8220 ha        1 YRG      0.114000
     30 HAF        -3.7270    5.2020    3.1530 ha        1 YRG      0.116500
     31 HAH        -3.6480    2.7560    3.6430 ha        1 YRG      0.137000
@<TRIPOS>BOND
     1    1    2 ar  
     2    1    7 ar  
     3    1   20 1   
     4    2    3 ar  
     5    2   21 1   
     6    3    4 1   
     7    3    5 ar  
     8    5    6 ar  
     9    5   22 1   
    10    6    7 ar  
    11    6   23 1   
    12    7    8 1   
    13    8    9 1   
    14    9   10 1   
    15    9   13 1   
    16    9   24 1   
    17   10   11 1   
    18   10   12 1   
    19   13   14 1   
    20   13   25 1   
    21   13   26 1   
    22   14   15 ar  
    23   14   19 ar  
    24   15   16 ar  
    25   15   27 1   
    26   16   17 ar  
    27   16   28 1   
    28   17   18 ar  
    29   17   29 1   
    30   18   19 ar  
    31   18   30 1   
    32   19   31 1   
@<TRIPOS>SUBSTRUCTURE
     1 YRG         1 TEMP              0 ****  ****    0 ROOT
