@<TRIPOS>MOLECULE
molecule
   20    20     1     0     0
SMALL
bcc


@<TRIPOS>ATOM
      1 C01          0.0000     0.0000     0.0000 ca         1 YRL      -0.096300
      2 C02          1.3820     0.0000     0.0000 ca         1 YRL      -0.111000
      3 C03         -0.6940     0.0010     1.1970 ca         1 YRL      -0.111000
      4 C04          2.0750     0.0000     1.1960 ca         1 YRL      -0.151000
      5 C05         -0.0060     0.0020     2.3950 ca         1 YRL      -0.151000
      6 C06          1.3820     0.0010     2.3970 ca         1 YRL       0.103100
      7 O07          2.0610     0.0000     3.5750 oh         1 YRL      -0.522100
      8 C08         -0.7520     0.0060    -1.3050 c3         1 YRL      -0.034100
      9 C09         -1.0080    -1.4340    -1.7530 c3         1 YRL       0.144400
     10 O10         -1.7220    -1.4280    -2.9910 oh         1 YRL      -0.614800
     11 H021         1.9230    -0.0010    -0.9390 ha         1 YRL       0.135000
     12 H031        -1.7770     0.0010     1.1940 ha         1 YRL       0.135000
     13 H041         3.1580    -0.0000     1.1950 ha         1 YRL       0.141000
     14 H051        -0.5500     0.0020     3.3320 ha         1 YRL       0.141000
     15 H071         2.2180     0.8890     3.8470 ho         1 YRL       0.419000
     16 H082        -0.1660     0.5200    -2.0580 hc         1 YRL       0.060700
     17 H081        -1.6990     0.5170    -1.1740 hc         1 YRL       0.060700
     18 H092        -1.5940    -1.9470    -1.0010 h1         1 YRL       0.023700
     19 H091        -0.0620    -1.9450    -1.8840 h1         1 YRL       0.023700
     20 H101        -1.8790    -2.3160    -3.2670 ho         1 YRL       0.404000
@<TRIPOS>BOND
     1    10     9 1
     2     9     8 1
     3     8     1 1
     4     1     2 ar
     5     1     3 ar
     6     2     4 ar
     7     3     5 ar
     8     4     6 ar
     9     5     6 ar
    10     6     7 1
    11     2    11 1
    12     3    12 1
    13     4    13 1
    14     5    14 1
    15     7    15 1
    16     8    16 1
    17     8    17 1
    18     9    18 1
    19     9    19 1
    20    10    20 1
@<TRIPOS>SUBSTRUCTURE
     1 YRL         1 TEMP              0 ****  ****    0 ROOT
