@<TRIPOS>MOLECULE
YRL
   20    20     1     0     0
SMALL
bcc


@<TRIPOS>ATOM
      1 C01         0.0250    0.0070   -0.0410 ca        1 YRL     -0.117300
      2 C02         1.4090    0.1870    0.0370 ca        1 YRL     -0.090000
      3 C03        -0.7200   -0.1120    1.1410 ca        1 YRL     -0.090000
      4 C04         2.0500    0.2460    1.2730 ca        1 YRL     -0.183500
      5 C05        -0.1020   -0.0560    2.3840 ca        1 YRL     -0.183500
      6 C06         1.2910    0.1230    2.4450 ca        1 YRL      0.123100
      7 O07         1.8490    0.1700    3.7010 oh        1 YRL     -0.498100
      8 C08        -0.6580   -0.0430   -1.3600 c3        1 YRL     -0.036100
      9 C09        -1.0690   -1.4680   -1.7090 c3        1 YRL      0.134400
     10 O10        -1.7580   -1.4040   -2.9480 oh        1 YRL     -0.603800
     11 H021        2.0020    0.2860   -0.8850 ha        1 YRL      0.135500
     12 H031       -1.8110   -0.2490    1.0820 ha        1 YRL      0.135500
     13 H041        3.1380    0.3890    1.3290 ha        1 YRL      0.142500
     14 H051       -0.6780   -0.1480    3.3150 ha        1 YRL      0.142500
     15 H071        2.8030    0.3050    3.5990 ho        1 YRL      0.419000
     16 H082       -1.5740    0.6060   -1.3450 hc        1 YRL      0.061700
     17 H081        0.0120    0.3500   -2.1700 hc        1 YRL      0.061700
     18 H092       -0.1670   -2.1280   -1.8050 h1        1 YRL      0.024700
     19 H091       -1.7450   -1.8860   -0.9150 h1        1 YRL      0.024700
     20 H101       -2.0060   -2.3080   -3.1710 ho        1 YRL      0.400000
@<TRIPOS>BOND
     1    1    2 ar  
     2    1    3 ar  
     3    1    8 1   
     4    2    4 ar  
     5    2   11 1   
     6    3    5 ar  
     7    3   12 1   
     8    4    6 ar  
     9    4   13 1   
    10    5    6 ar  
    11    5   14 1   
    12    6    7 1   
    13    7   15 1   
    14    8    9 1   
    15    8   16 1   
    16    8   17 1   
    17    9   10 1   
    18    9   18 1   
    19    9   19 1   
    20   10   20 1   
@<TRIPOS>SUBSTRUCTURE
     1 YRL         1 TEMP              0 ****  ****    0 ROOT
