@<TRIPOS>MOLECULE
molecule
   32    32     1     0     0
SMALL
bcc


@<TRIPOS>ATOM
      1 OAD          0.0000     0.0000     0.0000 o          1 YRO      -0.807300
      2 CAL          1.3470     0.0000     0.0000 c          1 YRO       0.880800
      3 OAG          1.9540     0.0000     1.0510 o          1 YRO      -0.807300
      4 CAN          2.0870     0.0010    -1.2840 cc         1 YRO       0.037400
      5 NAJ          1.4100    -0.1230    -2.4780 ns         1 YRO      -0.428100
      6 CAO          2.0640    -0.1250    -3.6510 c          1 YRO       0.798500
      7 OAE          1.4290    -0.2370    -4.6820 o          1 YRO      -0.708500
      8 NAK          3.4010    -0.0060    -3.7170 ns         1 YRO      -0.567500
      9 CAP          4.1310     0.1200    -2.5900 c          1 YRO       0.699700
     10 OAF          5.3420     0.2290    -2.6460 o          1 YRO      -0.661500
     11 CAM          3.4400     0.1300    -1.2950 cd         1 YRO      -0.275400
     12 CAH          4.2120     0.2740    -0.0090 c3         1 YRO      -0.013200
     13 CAI          4.6410    -1.1090     0.4870 c3         1 YRO      -0.053400
     14 CAQ          5.4250    -0.9620     1.7930 c3         1 YRO      -0.066000
     15 CAB          6.6660    -0.1000     1.5490 c3         1 YRO      -0.079100
     16 CAC          4.5390    -0.2960     2.8470 c3         1 YRO      -0.079100
     17 CAA          5.8550    -2.3450     2.2860 c3         1 YRO      -0.079100
     18 H2           3.8570    -0.0110    -4.6080 hn         1 YRO       0.340500
     19 H4           5.0900     0.8850    -0.1810 hc         1 YRO       0.072200
     20 H5           3.5850     0.7470     0.7380 hc         1 YRO       0.072200
     21 H6           3.7630    -1.7190     0.6590 hc         1 YRO       0.042700
     22 H7           5.2680    -1.5810    -0.2600 hc         1 YRO       0.042700
     23 H8           7.1250    -0.3850     0.6100 hc         1 YRO       0.029367
     24 H9           7.3730    -0.2480     2.3560 hc         1 YRO       0.029367
     25 H10          6.3780     0.9440     1.5080 hc         1 YRO       0.029367
     26 H11          5.0390    -0.3230     3.8080 hc         1 YRO       0.029367
     27 H12          3.5970    -0.8260     2.9140 hc         1 YRO       0.029367
     28 H13          4.3550     0.7340     2.5650 hc         1 YRO       0.029367
     29 H14          4.9780    -2.9610     2.4440 hc         1 YRO       0.029367
     30 H15          6.4950    -2.8100     1.5460 hc         1 YRO       0.029367
     31 H16          6.3970    -2.2440     3.2190 hc         1 YRO       0.029367
     32 H17          0.4130    -0.2140    -2.4710 hn         1 YRO       0.376500
@<TRIPOS>BOND
     1     7     6 2
     2     6     5 1
     3     6     8 1
     4     5     4 1
     5     8     9 1
     6     2     3 1
     7     2     4 1
     8     2     1 1
     9     4    11 2
    10     9    11 1
    11     9    10 2
    12    11    12 1
    13    12    13 1
    14    17    14 1
    15    13    14 1
    16    15    14 1
    17    14    16 1
    18     8    18 1
    19    12    19 1
    20    12    20 1
    21    13    21 1
    22    13    22 1
    23    15    23 1
    24    15    24 1
    25    15    25 1
    26    16    26 1
    27    16    27 1
    28    16    28 1
    29    17    29 1
    30    17    30 1
    31    17    31 1
    32     5    32 1
@<TRIPOS>SUBSTRUCTURE
     1 YRO         1 TEMP              0 ****  ****    0 ROOT
