@<TRIPOS>MOLECULE
YRO
   32    32     1     0     0
SMALL
bcc


@<TRIPOS>ATOM
      1 OAD          0.0000     0.0000     0.0000 o          1 YRO      -0.854800
      2 CAL          1.3470     0.0000     0.0000 c          1 YRO       0.975800
      3 OAG          1.9540     0.0000     1.0510 o          1 YRO      -0.854800
      4 CAN          2.0870     0.0010    -1.2840 cc         1 YRO      -0.137600
      5 NAJ          1.4100    -0.1230    -2.4780 ns         1 YRO       0.055900
      6 CAO          2.0640    -0.1250    -3.6510 c          1 YRO       0.559500
      7 OAE          1.4290    -0.2370    -4.6820 o          1 YRO      -0.763500
      8 NAK          3.4010    -0.0060    -3.7170 ns         1 YRO      -0.138500
      9 CAP          4.1310     0.1200    -2.5900 c          1 YRO       0.616700
     10 OAF          5.3420     0.2290    -2.6460 o          1 YRO      -0.700500
     11 CAM          3.4400     0.1300    -1.2950 cd         1 YRO      -0.262400
     12 CAH          4.2120     0.2740    -0.0090 c3         1 YRO       0.002800
     13 CAI          4.6410    -1.1090     0.4870 c3         1 YRO      -0.009400
     14 CAQ          5.4250    -0.9620     1.7930 c3         1 YRO      -0.065000
     15 CAB          6.6660    -0.1000     1.5490 c3         1 YRO       0.001900
     16 CAC          4.5390    -0.2960     2.8470 c3         1 YRO       0.001900
     17 CAA          5.8550    -2.3450     2.2860 c3         1 YRO       0.001900
     18 H2           3.8570    -0.0110    -4.6080 hn         1 YRO       0.186500
     19 H4           5.0900     0.8850    -0.1810 hc         1 YRO       0.057700
     20 H5           3.5850     0.7470     0.7380 hc         1 YRO       0.057700
     21 H6           3.7630    -1.7190     0.6590 hc         1 YRO       0.019200
     22 H7           5.2680    -1.5810    -0.2600 hc         1 YRO       0.019200
     23 H8           7.1250    -0.3850     0.6100 hc         1 YRO       0.002256
     24 H9           7.3730    -0.2480     2.3560 hc         1 YRO       0.002256
     25 H10          6.3780     0.9440     1.5080 hc         1 YRO       0.002256
     26 H11          5.0390    -0.3230     3.8080 hc         1 YRO       0.002256
     27 H12          3.5970    -0.8260     2.9140 hc         1 YRO       0.002256
     28 H13          4.3550     0.7340     2.5650 hc         1 YRO       0.002256
     29 H14          4.9780    -2.9610     2.4440 hc         1 YRO       0.002256
     30 H15          6.4950    -2.8100     1.5460 hc         1 YRO       0.002256
     31 H16          6.3970    -2.2440     3.2190 hc         1 YRO       0.002256
     32 H17          0.4130    -0.2140    -2.4710 hn         1 YRO       0.211500
@<TRIPOS>BOND
     1     1     2 1   
     2     2     3 1   
     3     2     4 1   
     4     4     5 1   
     5     4    11 2   
     6     5     6 1   
     7     5    32 1   
     8     6     7 2   
     9     6     8 1   
    10     8     9 1   
    11     8    18 1   
    12     9    10 2   
    13     9    11 1   
    14    11    12 1   
    15    12    13 1   
    16    12    19 1   
    17    12    20 1   
    18    13    14 1   
    19    13    21 1   
    20    13    22 1   
    21    14    15 1   
    22    14    16 1   
    23    14    17 1   
    24    15    23 1   
    25    15    24 1   
    26    15    25 1   
    27    16    26 1   
    28    16    27 1   
    29    16    28 1   
    30    17    29 1   
    31    17    30 1   
    32    17    31 1   
@<TRIPOS>SUBSTRUCTURE
     1 YRO         1 TEMP              0 ****  ****    0 ROOT
