@<TRIPOS>MOLECULE
YRZ
   37    40     1     0     0
SMALL
bcc


@<TRIPOS>ATOM
      1 N19          0.0000     0.0000     0.0000 nu         1 YRZ      -0.490900
      2 C6           1.4650     0.0000     0.0000 c3         1 YRZ       0.130500
      3 C11          1.9760     0.0000     1.4440 c3         1 YRZ      -0.037400
      4 C10          3.5060    -0.0610     1.4350 c3         1 YRZ      -0.016400
      5 C9           3.9580    -1.3100     0.6770 c3         1 YRZ       0.142800
      6 N8           3.4450    -1.2630    -0.6980 n7         1 YRZ      -0.567200
      7 C7           1.9760    -1.2520    -0.7170 c3         1 YRZ       0.128800
      8 C17         -0.6920     0.5030    -1.0890 cc         1 YRZ       0.575200
      9 C1          -2.0960     0.5020    -1.0870 cc         1 YRZ      -0.387600
     10 C5          -3.0900     0.0240    -0.0530 c3         1 YRZ       0.056900
     11 C4          -4.4600     0.3180    -0.6890 c3         1 YRZ       0.135800
     12 N3          -4.1430     0.9180    -1.9880 nu         1 YRZ      -0.352600
     13 N18         -0.0290     0.9880    -2.1250 nd         1 YRZ      -0.670000
     14 C13         -0.6860     1.4790    -3.1860 cd         1 YRZ       0.263500
     15 C14         -0.2490     2.0360    -4.3800 cc         1 YRZ      -0.398600
     16 C15         -1.3740     2.3750    -5.1210 cc         1 YRZ       0.495500
     17 N16         -2.4470     2.0530    -4.4380 nd         1 YRZ      -0.758100
     18 N12         -2.0540     1.4880    -3.2200 na         1 YRZ       0.502200
     19 C2          -2.7780     0.9960    -2.1560 cd         1 YRZ      -0.010700
     20 H1          -0.5000    -0.3360     0.7990 hn         1 YRZ       0.292800
     21 H2           1.8310     0.8820    -0.5110 h1         1 YRZ       0.074700
     22 H3           1.5830    -0.8640     1.9660 hc         1 YRZ       0.015200
     23 H4           1.6530     0.9070     1.9410 hc         1 YRZ       0.015200
     24 H5           3.8710    -0.1060     2.4550 hc         1 YRZ       0.022200
     25 H6           3.8990     0.8210     0.9440 hc         1 YRZ       0.022200
     26 H7           5.0410    -1.3460     0.6560 h1         1 YRZ       0.004700
     27 H8           3.5730    -2.1920     1.1750 h1         1 YRZ       0.004700
     28 H9           3.7790    -2.0570    -1.2070 hn         1 YRZ       0.252800
     29 H11          1.6030    -2.1340    -0.2100 h1         1 YRZ       0.013700
     30 H12          1.6290    -1.2450    -1.7430 h1         1 YRZ       0.013700
     31 H13         -2.9740    -1.0390     0.1200 hc         1 YRZ       0.022700
     32 H14         -5.0170     1.0170    -0.0770 h1         1 YRZ       0.026200
     33 H15         -4.5380     0.3600    -2.7190 hn         1 YRZ       0.271800
     34 H16          0.7820     2.1810    -4.6790 ha         1 YRZ       0.147000
     35 H17         -1.3660     2.8320    -6.1030 h4         1 YRZ       0.007800
     36 H10         -2.9740     0.5800     0.8690 hc         1 YRZ       0.022700
     37 H18         -5.0170    -0.6020    -0.8250 h1         1 YRZ       0.026200
@<TRIPOS>BOND
     1     1     2 1   
     2     1     8 1   
     3     1    20 1   
     4     2     3 1   
     5     2     7 1   
     6     2    21 1   
     7     3     4 1   
     8     3    22 1   
     9     3    23 1   
    10     4     5 1   
    11     4    24 1   
    12     4    25 1   
    13     5     6 1   
    14     5    26 1   
    15     5    27 1   
    16     6     7 1   
    17     6    28 1   
    18     7    29 1   
    19     7    30 1   
    20     8     9 1   
    21     8    13 2   
    22     9    10 1   
    23     9    19 2   
    24    10    11 1   
    25    10    31 1   
    26    10    36 1   
    27    11    12 1   
    28    11    32 1   
    29    11    37 1   
    30    12    19 1   
    31    12    33 1   
    32    13    14 1   
    33    14    15 2   
    34    14    18 1   
    35    15    16 1   
    36    15    34 1   
    37    16    17 2   
    38    16    35 1   
    39    17    18 1   
    40    18    19 1   
@<TRIPOS>SUBSTRUCTURE
     1 YRZ         1 TEMP              0 ****  ****    0 ROOT
