@<TRIPOS>MOLECULE
YS1
   40    42     1     0     0
SMALL
bcc


@<TRIPOS>ATOM
      1 OAJ         0.0000    0.0000    0.0000 o         1 YS1     -0.693500
      2 PAI         1.4800    0.0000    0.0000 p5        1 YS1      0.433200
      3 OAK         2.0170    0.0000    1.5180 o         1 YS1     -0.693500
      4 OAL         2.0170   -1.3140   -0.7590 o         1 YS1     -0.693500
      5 CAH         2.0880    1.4890   -0.8590 c3        1 YS1      0.280100
      6 PAM         3.9110    1.4890   -0.8590 p5        1 YS1      0.433200
      7 OAN         4.4470    1.4890    0.6580 o         1 YS1     -0.693500
      8 OAP         4.4480    0.1750   -1.6180 o         1 YS1     -0.693500
      9 OAO         4.4040    2.6970   -1.5560 o         1 YS1     -0.693500
     10 NAG         1.6000    1.4890   -2.2410 nu        1 YS1     -0.126900
     11 CAD         1.6620    2.6520   -3.0000 ca        1 YS1      0.359200
     12 CAE         2.1870    3.8090   -2.4410 ca        1 YS1     -0.056300
     13 NAC         1.2230    2.6430   -4.2490 nb        1 YS1     -0.848000
     14 CAB         1.2610    3.7210   -5.0100 ca        1 YS1      0.456200
     15 CAA         1.7630    4.9120   -4.5300 ca        1 YS1     -0.500300
     16 CAF         2.2430    4.9680   -3.2160 cp        1 YS1     -0.076000
     17 CAQ         2.7910    6.2290   -2.6610 cp        1 YS1     -0.049000
     18 CAV         3.2700    6.2660   -1.3520 ca        1 YS1     -0.132000
     19 CAU         3.7800    7.4410   -0.8380 ca        1 YS1     -0.156000
     20 CAR         2.8350    7.3780   -3.4480 ca        1 YS1     -0.132000
     21 CAS         3.3460    8.5500   -2.9290 ca        1 YS1     -0.156000
     22 CAT         3.8160    8.5850   -1.6230 ca        1 YS1     -0.136900
     23 OAW         4.3180    9.7400   -1.1150 os        1 YS1     -0.259900
     24 CAX         4.4380   10.8460   -2.0120 cx        1 YS1      0.160100
     25 CAY         4.4580   12.2500   -1.4040 cx        1 YS1     -0.151900
     26 CAZ         5.7420   11.6460   -1.9770 cx        1 YS1     -0.151900
     27 H3          1.7270    2.3730   -0.3480 h1        1 YS1      0.028700
     28 H6          1.2040    0.6570   -2.6320 hn        1 YS1      0.278800
     29 H7          2.3650    3.8630   -1.3740 ha        1 YS1      0.141000
     30 H8          0.8930    3.6690   -6.0280 h4        1 YS1     -0.105900
     31 H9          1.7900    5.7910   -5.1620 ha        1 YS1      0.071000
     32 H10         3.2420    5.3730   -0.7390 ha        1 YS1      0.118000
     33 H11         4.1500    7.4710    0.1800 ha        1 YS1      0.065000
     34 H12         2.4340    7.3610   -4.4540 ha        1 YS1      0.118000
     35 H13         3.3760    9.4440   -3.5390 ha        1 YS1      0.065000
     36 H14         3.9720   10.7810   -2.9880 h1        1 YS1      0.063700
     37 H15         3.9980   13.0260   -2.0040 hc        1 YS1      0.032200
     38 H16         4.4030   12.2920   -0.3230 hc        1 YS1      0.032200
     39 H17         6.0670   12.0530   -2.9270 hc        1 YS1      0.032200
     40 H18         6.4710   11.3190   -1.2450 hc        1 YS1      0.032200
@<TRIPOS>BOND
     1    1    2 1   
     2    2    3 1   
     3    2    4 1   
     4    2    5 1   
     5    5    6 1   
     6    5   10 1   
     7    5   27 1   
     8    6    7 1   
     9    6    8 1   
    10    6    9 1   
    11   10   11 1   
    12   10   28 1   
    13   11   12 ar  
    14   11   13 ar  
    15   12   16 ar  
    16   12   29 1   
    17   13   14 ar  
    18   14   15 ar  
    19   14   30 1   
    20   15   16 ar  
    21   15   31 1   
    22   16   17 1   
    23   17   18 ar  
    24   17   20 ar  
    25   18   19 ar  
    26   18   32 1   
    27   19   22 ar  
    28   19   33 1   
    29   20   21 ar  
    30   20   34 1   
    31   21   22 ar  
    32   21   35 1   
    33   22   23 1   
    34   23   24 1   
    35   24   25 1   
    36   24   26 1   
    37   24   36 1   
    38   25   26 1   
    39   25   37 1   
    40   25   38 1   
    41   26   39 1   
    42   26   40 1   
@<TRIPOS>SUBSTRUCTURE
     1 YS1         1 TEMP              0 ****  ****    0 ROOT
