@<TRIPOS>MOLECULE
YS2
   65    67     1     0     0
SMALL
bcc


@<TRIPOS>ATOM
      1 O3          0.3590    0.2930   -0.6140 oh        1 YS2     -0.601800
      2 C24         1.7200   -0.0530   -0.4160 c3        1 YS2      0.131400
      3 C23         2.0060    0.0930    1.0690 c3        1 YS2     -0.084400
      4 C22         3.4480   -0.2560    1.3670 c3        1 YS2     -0.080400
      5 C20         3.7630   -0.1430    2.8570 c3        1 YS2     -0.054700
      6 C21         3.2660   -1.3860    3.5710 c3        1 YS2     -0.092100
      7 C17         5.2600    0.0670    3.0640 c3        1 YS2     -0.054700
      8 C13         5.7450    0.2210    4.5240 c3        1 YS2     -0.040000
      9 C18         4.7970    1.1050    5.3180 c3        1 YS2     -0.083100
     10 C12         6.0220   -1.0770    5.2680 c3        1 YS2     -0.067400
     11 C11         6.7070   -0.8020    6.5950 c3        1 YS2     -0.072400
     12 C9          7.9350    0.0870    6.4930 c3        1 YS2     -0.045200
     13 C16         5.7650    1.3470    2.3660 c3        1 YS2     -0.079400
     14 C15         6.8330    1.9780    3.2600 c3        1 YS2     -0.073400
     15 C14         7.1180    0.9200    4.3150 c3        1 YS2     -0.036500
     16 C8          7.7420    1.2820    5.6140 c2        1 YS2     -0.080400
     17 C7          8.1400    2.5260    5.9260 ce        1 YS2     -0.146000
     18 C6          8.8170    2.8980    7.1500 ce        1 YS2     -0.125000
     19 C5          8.7060    4.0840    7.7770 c2        1 YS2     -0.099400
     20 C4          9.4600    4.3470    9.0360 c3        1 YS2     -0.054200
     21 C10         7.8150    5.1850    7.3280 c3        1 YS2     -0.054200
     22 C1          8.5680    6.5180    7.2780 c3        1 YS2      0.184300
     23 O1          7.6800    7.5820    6.9490 oh        1 YS2     -0.599300
     24 C2          9.2070    6.8090    8.6020 c2        1 YS2     -0.171400
     25 C28         8.9880    7.9200    9.3060 c2        1 YS2     -0.174000
     26 C3         10.1300    5.7220    9.0760 c3        1 YS2      0.184300
     27 O2         11.3050    5.6350    8.2750 oh        1 YS2     -0.599300
     28 H1          0.1850    0.1960   -1.5580 ho        1 YS2      0.398000
     29 H2          2.3800    0.6300   -1.0150 h1        1 YS2      0.019700
     30 H3          1.8980   -1.1110   -0.7510 h1        1 YS2      0.019700
     31 H4          1.7880    1.1470    1.3830 hc        1 YS2      0.055700
     32 H5          1.3090   -0.5730    1.6430 hc        1 YS2      0.055700
     33 H6          4.1120    0.4300    0.7770 hc        1 YS2      0.040700
     34 H7          3.6650   -1.3010    1.0210 hc        1 YS2      0.040700
     35 H8          3.2160    0.7510    3.2700 hc        1 YS2      0.053700
     36 H9          2.2500   -1.6690    3.2010 hc        1 YS2      0.035367
     37 H10         3.1930   -1.2080    4.6700 hc        1 YS2      0.035367
     38 H11         3.9570   -2.2460    3.3930 hc        1 YS2      0.035367
     39 H12         5.7930   -0.8200    2.6200 hc        1 YS2      0.046700
     40 H13         4.4960    1.9930    4.7110 hc        1 YS2      0.038033
     41 H14         5.2920    1.4710    6.2500 hc        1 YS2      0.038033
     42 H15         3.8790    0.5380    5.6020 hc        1 YS2      0.038033
     43 H16         5.0660   -1.6300    5.4580 hc        1 YS2      0.042700
     44 H17         6.6710   -1.7370    4.6350 hc        1 YS2      0.042700
     45 H18         7.0130   -1.7790    7.0540 hc        1 YS2      0.041200
     46 H19         5.9690   -0.3260    7.2940 hc        1 YS2      0.041200
     47 H20         8.7880   -0.5120    6.0700 hc        1 YS2      0.048200
     48 H21         8.2300    0.4020    7.5290 hc        1 YS2      0.048200
     49 H22         6.1920    1.0930    1.3640 hc        1 YS2      0.042200
     50 H23         4.9230    2.0660    2.2070 hc        1 YS2      0.042200
     51 H24         6.4460    2.9180    3.7260 hc        1 YS2      0.043700
     52 H25         7.7540    2.2350    2.6820 hc        1 YS2      0.043700
     53 H26         7.8120    0.1610    3.8400 hc        1 YS2      0.055700
     54 H27         7.9740    3.3430    5.2010 ha        1 YS2      0.124000
     55 H28         9.4900    2.1290    7.5740 ha        1 YS2      0.126000
     56 H29         8.7440    4.2890    9.9000 hc        1 YS2      0.058700
     57 H30        10.2550    3.5690    9.1890 hc        1 YS2      0.058700
     58 H31         7.3820    4.9760    6.3150 hc        1 YS2      0.058700
     59 H32         6.9540    5.2790    8.0450 hc        1 YS2      0.058700
     60 H33         9.3810    6.4620    6.4950 h1        1 YS2      0.044700
     61 H34         7.2500    7.3330    6.1230 ho        1 YS2      0.403000
     62 H35         9.4750    8.1110   10.2710 ha        1 YS2      0.124500
     63 H36         8.3020    8.7050    8.9540 ha        1 YS2      0.124500
     64 H37        10.4510    5.9350   10.1390 h1        1 YS2      0.044700
     65 H38        11.6160    6.5370    8.1330 ho        1 YS2      0.403000
@<TRIPOS>BOND
     1    1    2 1   
     2    1   28 1   
     3    2    3 1   
     4    2   29 1   
     5    2   30 1   
     6    3    4 1   
     7    3   31 1   
     8    3   32 1   
     9    4    5 1   
    10    4   33 1   
    11    4   34 1   
    12    5    6 1   
    13    5    7 1   
    14    5   35 1   
    15    6   36 1   
    16    6   37 1   
    17    6   38 1   
    18    7    8 1   
    19    7   13 1   
    20    7   39 1   
    21    8    9 1   
    22    8   10 1   
    23    8   15 1   
    24    9   40 1   
    25    9   41 1   
    26    9   42 1   
    27   10   11 1   
    28   10   43 1   
    29   10   44 1   
    30   11   12 1   
    31   11   45 1   
    32   11   46 1   
    33   12   16 1   
    34   12   47 1   
    35   12   48 1   
    36   13   14 1   
    37   13   49 1   
    38   13   50 1   
    39   14   15 1   
    40   14   51 1   
    41   14   52 1   
    42   15   16 1   
    43   15   53 1   
    44   16   17 2   
    45   17   18 1   
    46   17   54 1   
    47   18   19 2   
    48   18   55 1   
    49   19   20 1   
    50   19   21 1   
    51   20   26 1   
    52   20   56 1   
    53   20   57 1   
    54   21   22 1   
    55   21   58 1   
    56   21   59 1   
    57   22   23 1   
    58   22   24 1   
    59   22   60 1   
    60   23   61 1   
    61   24   25 2   
    62   24   26 1   
    63   25   62 1   
    64   25   63 1   
    65   26   27 1   
    66   26   64 1   
    67   27   65 1   
@<TRIPOS>SUBSTRUCTURE
     1 YS2         1 TEMP              0 ****  ****    0 ROOT
