@<TRIPOS>MOLECULE
molecule
   65    67     1     0     0
SMALL
bcc


@<TRIPOS>ATOM
      1 O3           0.0000     0.0000     0.0000 oh         1 YS2      -0.612800
      2 C24          1.4290     0.0000     0.0000 c3         1 YS2       0.140400
      3 C23          1.9390     0.0000     1.4420 c3         1 YS2      -0.083400
      4 C22          3.4690    -0.0010     1.4410 c3         1 YS2      -0.080400
      5 C20          3.9800    -0.0000     2.8840 c3         1 YS2      -0.068700
      6 C21          3.5760    -1.3070     3.5680 c3         1 YS2      -0.096100
      7 C17          5.5060     0.1250     2.8850 c3         1 YS2      -0.054700
      8 C13          6.0310     0.1630     4.3110 c3         1 YS2      -0.060000
      9 C18          5.0170     0.8810     5.2040 c3         1 YS2      -0.092100
     10 C12          6.4360    -1.1390     4.9610 c3         1 YS2      -0.065400
     11 C11          6.8190    -0.8300     6.4180 c3         1 YS2      -0.078400
     12 C9           7.9650     0.1760     6.5020 c3         1 YS2      -0.043200
     13 C16          5.9360     1.4780     2.2580 c3         1 YS2      -0.081400
     14 C15          6.7890     2.2060     3.3340 c3         1 YS2      -0.078400
     15 C14          7.3050     1.0480     4.1960 c3         1 YS2      -0.035500
     16 C8           7.6940     1.3780     5.6070 c2         1 YS2      -0.095400
     17 C7           7.7930     2.6280     6.0440 ce         1 YS2      -0.151000
     18 C6           8.1770     2.8910     7.4400 ce         1 YS2      -0.133000
     19 C5           8.1710     4.1340     7.9080 c2         1 YS2      -0.110400
     20 C4           8.6890     4.4360     9.2960 c3         1 YS2      -0.051200
     21 C10          7.6510     5.2720     7.0610 c3         1 YS2      -0.051200
     22 C1           8.7430     6.3440     6.9570 c3         1 YS2       0.194300
     23 O1           8.1980     7.5310     6.3750 oh         1 YS2      -0.603800
     24 C2           9.2560     6.6460     8.3470 c2         1 YS2      -0.150400
     25 C28          9.2510     7.8710     8.8100 c2         1 YS2      -0.191000
     26 C3           9.7800     5.5100     9.1880 c3         1 YS2       0.194300
     27 O2          10.9460     4.9570     8.5740 oh         1 YS2      -0.603800
     28 H1          -0.3140    -0.0010    -0.8890 ho         1 YS2       0.400000
     29 H2           1.7900    -0.8840    -0.5110 h1         1 YS2       0.017700
     30 H3           1.7900     0.8840    -0.5110 h1         1 YS2       0.017700
     31 H4           1.5780    -0.8840     1.9530 hc         1 YS2       0.055200
     32 H5           1.5790     0.8850     1.9530 hc         1 YS2       0.055200
     33 H6           3.8300    -0.8850     0.9300 hc         1 YS2       0.042200
     34 H7           3.8300     0.8840     0.9290 hc         1 YS2       0.042200
     35 H8           3.5490     0.8370     3.4190 hc         1 YS2       0.061700
     36 H9           4.3470    -2.0510     3.4090 hc         1 YS2       0.037033
     37 H10          3.4520    -1.1360     4.6300 hc         1 YS2       0.037033
     38 H11          2.6410    -1.6600     3.1480 hc         1 YS2       0.037033
     39 H12          5.9560    -0.6970     2.3420 hc         1 YS2       0.053700
     40 H13          4.5270     1.6630     4.6370 hc         1 YS2       0.040700
     41 H14          5.5290     1.3160     6.0530 hc         1 YS2       0.040700
     42 H15          4.2770     0.1700     5.5530 hc         1 YS2       0.040700
     43 H16          7.2870    -1.5600     4.4400 hc         1 YS2       0.045200
     44 H17          5.6040    -1.8340     4.9400 hc         1 YS2       0.045200
     45 H18          5.9550    -0.4230     6.9300 hc         1 YS2       0.043200
     46 H19          7.1220    -1.7500     6.9040 hc         1 YS2       0.043200
     47 H20          8.8830    -0.3040     6.1830 hc         1 YS2       0.049700
     48 H21          8.0690     0.5120     7.5260 hc         1 YS2       0.049700
     49 H22          5.0610     2.0700     2.0160 hc         1 YS2       0.043700
     50 H23          6.5300     1.3030     1.3690 hc         1 YS2       0.043700
     51 H24          7.6130     2.7370     2.8740 hc         1 YS2       0.047200
     52 H25          6.1720     2.8750     3.9230 hc         1 YS2       0.047200
     53 H26          8.0990     0.5130     3.6900 hc         1 YS2       0.066700
     54 H27          7.5900     3.4540     5.3740 ha         1 YS2       0.135000
     55 H28          8.5560     2.0840     8.0570 ha         1 YS2       0.131000
     56 H29          7.8790     4.8030     9.9140 hc         1 YS2       0.058200
     57 H30          9.1080     3.5360     9.7310 hc         1 YS2       0.058200
     58 H31          7.4070     4.9060     6.0710 hc         1 YS2       0.058200
     59 H32          6.7690     5.6970     7.5250 hc         1 YS2       0.058200
     60 H33          9.5560     5.9740     6.3440 h1         1 YS2       0.046700
     61 H34          8.4830     7.6010     5.4800 ho         1 YS2       0.401500
     62 H35          8.8740     8.6810     8.1960 ha         1 YS2       0.122000
     63 H36          9.6210     8.0750     9.8080 ha         1 YS2       0.122000
     64 H37         10.0240     5.8770    10.1780 h1         1 YS2       0.046700
     65 H38         11.6820     5.0530     9.1550 ho         1 YS2       0.401500
@<TRIPOS>BOND
     1    25    24 2
     2    23    22 1
     3    24    26 1
     4    24    22 1
     5    26    27 1
     6    26    20 1
     7    22    21 1
     8    20    19 1
     9    21    19 1
    10    19    18 2
    11    18    17 1
    12    17    16 2
    13    16    12 1
    14    16    15 1
    15    14    15 1
    16    14    13 1
    17     9     8 1
    18    12    11 1
    19    15     8 1
    20    13     7 1
    21     8     7 1
    22     8    10 1
    23     2     1 1
    24     2     3 1
    25    11    10 1
    26     7     5 1
    27     5     6 1
    28     5     4 1
    29     3     4 1
    30     1    28 1
    31     2    29 1
    32     2    30 1
    33     3    31 1
    34     3    32 1
    35     4    33 1
    36     4    34 1
    37     5    35 1
    38     6    36 1
    39     6    37 1
    40     6    38 1
    41     7    39 1
    42     9    40 1
    43     9    41 1
    44     9    42 1
    45    10    43 1
    46    10    44 1
    47    11    45 1
    48    11    46 1
    49    12    47 1
    50    12    48 1
    51    13    49 1
    52    13    50 1
    53    14    51 1
    54    14    52 1
    55    15    53 1
    56    17    54 1
    57    18    55 1
    58    20    56 1
    59    20    57 1
    60    21    58 1
    61    21    59 1
    62    22    60 1
    63    23    61 1
    64    25    62 1
    65    25    63 1
    66    26    64 1
    67    27    65 1
@<TRIPOS>SUBSTRUCTURE
     1 YS2         1 TEMP              0 ****  ****    0 ROOT
