@<TRIPOS>MOLECULE
YS3
   71    73     1     0     0
SMALL
bcc


@<TRIPOS>ATOM
      1 OAH        -0.0470   -0.0790   -0.3600 oh        1 YS3     -0.597800
      2 CBA         1.2790   -0.1080    0.1700 c3        1 YS3      0.147800
      3 CAC         1.2340   -0.0120    1.6900 c3        1 YS3     -0.123100
      4 CAD         1.9680   -1.4050   -0.2460 c3        1 YS3     -0.123100
      5 CAP         2.0130    1.0830   -0.4540 c3        1 YS3     -0.064400
      6 CAM         1.4120    2.4150   -0.0610 c3        1 YS3     -0.080400
      7 CAW         2.0190    3.5660   -0.8620 c3        1 YS3     -0.054700
      8 CAB         1.3360    3.6510   -2.2140 c3        1 YS3     -0.091100
      9 CAZ         1.8980    4.8730   -0.0850 c3        1 YS3     -0.053700
     10 CAN         2.6180    4.8040    1.2780 c3        1 YS3     -0.078400
     11 CAQ         3.2510    6.1710    1.5430 c3        1 YS3     -0.073400
     12 CBB         2.6630    7.0760    0.4710 c3        1 YS3     -0.037500
     13 CBC         2.4870    6.1370   -0.7550 c3        1 YS3     -0.040000
     14 CAE         3.8250    5.8300   -1.4050 c3        1 YS3     -0.082100
     15 CAO         1.5660    6.8550   -1.7300 c3        1 YS3     -0.067400
     16 CAK         2.1550    8.1930   -2.1410 c3        1 YS3     -0.072400
     17 CAL         2.5790    9.0750   -0.9780 c3        1 YS3     -0.045200
     18 CAV         3.3330    8.3450    0.0870 c2        1 YS3     -0.079400
     19 CAJ         4.4500    8.8040    0.6770 ce        1 YS3     -0.148000
     20 CAI         5.0870   10.0680    0.3780 ce        1 YS3     -0.124000
     21 CAU         6.4070   10.3150    0.4450 c2        1 YS3     -0.100400
     22 CAS         6.9420   11.6670    0.1120 c3        1 YS3     -0.054200
     23 CAR         7.4310    9.2940    0.7880 c3        1 YS3     -0.054200
     24 CAX         8.3890    9.8130    1.8650 c3        1 YS3      0.184300
     25 OAF         9.4260    8.8680    2.1100 oh        1 YS3     -0.599300
     26 CAT         9.0040   11.1110    1.4370 c2        1 YS3     -0.171400
     27 CAA        10.3190   11.3200    1.3560 c2        1 YS3     -0.174000
     28 CAY         7.9950   12.1720    1.1000 c3        1 YS3      0.184300
     29 OAG         7.2960   12.6280    2.2550 oh        1 YS3     -0.599300
     30 H1         -0.5170   -0.8270    0.0270 ho        1 YS3      0.397000
     31 H2          0.8390   -0.9610    2.1270 hc        1 YS3      0.042367
     32 H3          2.2580    0.1690    2.0920 hc        1 YS3      0.042367
     33 H4          0.5660    0.8260    2.0000 hc        1 YS3      0.042367
     34 H5          1.9780   -1.4910   -1.3590 hc        1 YS3      0.042367
     35 H6          1.4240   -2.2850    0.1730 hc        1 YS3      0.042367
     36 H7          3.0180   -1.4190    0.1310 hc        1 YS3      0.042367
     37 H8          3.0860    1.0380   -0.1350 hc        1 YS3      0.047200
     38 H9          1.9790    0.9670   -1.5690 hc        1 YS3      0.047200
     39 H10         1.5770    2.5770    1.0360 hc        1 YS3      0.050200
     40 H11         0.3020    2.3850   -0.2280 hc        1 YS3      0.050200
     41 H12         3.1130    3.3490   -1.0260 hc        1 YS3      0.047700
     42 H13         1.9520    4.2410   -2.9340 hc        1 YS3      0.035367
     43 H14         1.1890    2.6290   -2.6410 hc        1 YS3      0.035367
     44 H15         0.3350    4.1370   -2.1190 hc        1 YS3      0.035367
     45 H16         0.8030    5.0610    0.0950 hc        1 YS3      0.048700
     46 H17         3.4060    4.0110    1.2660 hc        1 YS3      0.041200
     47 H18         1.8870    4.5480    2.0840 hc        1 YS3      0.041200
     48 H19         3.0110    6.5430    2.5680 hc        1 YS3      0.042700
     49 H20         4.3640    6.1090    1.4520 hc        1 YS3      0.042700
     50 H21         1.6260    7.3680    0.8220 hc        1 YS3      0.056700
     51 H22         3.6770    5.2920   -2.3720 hc        1 YS3      0.037367
     52 H23         4.4460    5.1910   -0.7320 hc        1 YS3      0.037367
     53 H24         4.3880    6.7740   -1.6060 hc        1 YS3      0.037367
     54 H25         1.4040    6.2310   -2.6460 hc        1 YS3      0.042700
     55 H26         0.5650    7.0130   -1.2500 hc        1 YS3      0.042700
     56 H27         1.3970    8.7510   -2.7520 hc        1 YS3      0.040200
     57 H28         3.0430    8.0120   -2.8030 hc        1 YS3      0.040200
     58 H29         1.6620    9.5190   -0.5010 hc        1 YS3      0.047700
     59 H30         3.1890    9.9240   -1.3830 hc        1 YS3      0.047700
     60 H32         4.9250    8.2020    1.4730 ha        1 YS3      0.124000
     61 H33         4.4020   10.8880    0.0900 ha        1 YS3      0.125000
     62 H35         6.1110   12.4210    0.0740 hc        1 YS3      0.058450
     63 H36         7.4190   11.6220   -0.9050 hc        1 YS3      0.058450
     64 H37         8.0220    9.0390   -0.1340 hc        1 YS3      0.058450
     65 H38         6.9580    8.3450    1.1520 hc        1 YS3      0.058450
     66 H39         7.8170    9.9890    2.8230 h1        1 YS3      0.044700
     67 H40         8.9900    8.0360    2.3280 ho        1 YS3      0.403000
     68 H41        10.7430   12.2840    1.0440 ha        1 YS3      0.124500
     69 H42        11.0480   10.5330    1.5940 ha        1 YS3      0.124500
     70 H43         8.5210   13.0620    0.6410 h1        1 YS3      0.044700
     71 H44         7.9540   12.7560    2.9490 ho        1 YS3      0.403000
@<TRIPOS>BOND
     1    1    2 1   
     2    1   30 1   
     3    2    3 1   
     4    2    4 1   
     5    2    5 1   
     6    3   31 1   
     7    3   32 1   
     8    3   33 1   
     9    4   34 1   
    10    4   35 1   
    11    4   36 1   
    12    5    6 1   
    13    5   37 1   
    14    5   38 1   
    15    6    7 1   
    16    6   39 1   
    17    6   40 1   
    18    7    8 1   
    19    7    9 1   
    20    7   41 1   
    21    8   42 1   
    22    8   43 1   
    23    8   44 1   
    24    9   10 1   
    25    9   13 1   
    26    9   45 1   
    27   10   11 1   
    28   10   46 1   
    29   10   47 1   
    30   11   12 1   
    31   11   48 1   
    32   11   49 1   
    33   12   13 1   
    34   12   18 1   
    35   12   50 1   
    36   13   14 1   
    37   13   15 1   
    38   14   51 1   
    39   14   52 1   
    40   14   53 1   
    41   15   16 1   
    42   15   54 1   
    43   15   55 1   
    44   16   17 1   
    45   16   56 1   
    46   16   57 1   
    47   17   18 1   
    48   17   58 1   
    49   17   59 1   
    50   18   19 2   
    51   19   20 1   
    52   19   60 1   
    53   20   21 2   
    54   20   61 1   
    55   21   22 1   
    56   21   23 1   
    57   22   28 1   
    58   22   62 1   
    59   22   63 1   
    60   23   24 1   
    61   23   64 1   
    62   23   65 1   
    63   24   25 1   
    64   24   26 1   
    65   24   66 1   
    66   25   67 1   
    67   26   27 2   
    68   26   28 1   
    69   27   68 1   
    70   27   69 1   
    71   28   29 1   
    72   28   70 1   
    73   29   71 1   
@<TRIPOS>SUBSTRUCTURE
     1 YS3         1 TEMP              0 ****  ****    0 ROOT
