@<TRIPOS>MOLECULE
molecule
   71    73     1     0     0
SMALL
bcc


@<TRIPOS>ATOM
      1 OAH          0.0000     0.0000     0.0000 oh         1 YS3      -0.603800
      2 CBA          1.4290     0.0000     0.0000 c3         1 YS3       0.146800
      3 CAC          1.9400     0.0000     1.4420 c3         1 YS3      -0.120600
      4 CAD          1.9380    -1.2500    -0.7220 c3         1 YS3      -0.120600
      5 CAP          1.9390     1.2480    -0.7220 c3         1 YS3      -0.066400
      6 CAM          1.5350     2.4950     0.0690 c3         1 YS3      -0.079400
      7 CAW          2.0460     3.7430    -0.6530 c3         1 YS3      -0.071700
      8 CAB          1.3410     3.8760    -2.0040 c3         1 YS3      -0.096100
      9 CAZ          1.7510     4.9800     0.1980 c3         1 YS3      -0.053700
     10 CAN          2.5440     4.9190     1.5300 c3         1 YS3      -0.080400
     11 CAQ          3.4050     6.2140     1.5860 c3         1 YS3      -0.078400
     12 CBB          2.6320     7.1730     0.6790 c3         1 YS3      -0.034500
     13 CBC          2.2510     6.2350    -0.5020 c3         1 YS3      -0.060000
     14 CAE          3.5110     5.8990    -1.3030 c3         1 YS3      -0.093100
     15 CAO          1.2930     6.9890    -1.3940 c3         1 YS3      -0.066400
     16 CAK          2.0770     8.1350    -2.0540 c3         1 YS3      -0.079400
     17 CAL          2.6820     9.0790    -1.0170 c3         1 YS3      -0.043200
     18 CAV          3.4130     8.2950     0.0640 c2         1 YS3      -0.094400
     19 CAJ          4.6550     8.5850     0.4360 ce         1 YS3      -0.153000
     20 CAI          5.3740     9.6990    -0.2040 ce         1 YS3      -0.132000
     21 CAU          6.6500     9.9220     0.0900 c2         1 YS3      -0.111400
     22 CAS          7.3640    11.1380    -0.4550 c3         1 YS3      -0.050200
     23 CAR          7.4130     8.9660     0.9770 c3         1 YS3      -0.050200
     24 CAX          8.0080     9.7560     2.1500 c3         1 YS3       0.193800
     25 OAF          8.9350     8.9330     2.8620 oh         1 YS3      -0.603800
     26 CAT          8.7230    10.9690     1.6010 c2         1 YS3      -0.150400
     27 CAA          9.9820    11.1880     1.8890 c2         1 YS3      -0.192000
     28 CAY          7.9590    11.9230     0.7200 c3         1 YS3       0.193800
     29 OAG          6.9060    12.5320     1.4720 oh         1 YS3      -0.603800
     30 H1          -0.3140    -0.8500     0.2620 ho         1 YS3       0.401000
     31 H2           1.3050     0.6330     2.0500 hc         1 YS3       0.041367
     32 H3           2.9550     0.3770     1.4660 hc         1 YS3       0.041367
     33 H4           1.9200    -1.0110     1.8320 hc         1 YS3       0.041367
     34 H5           1.5630    -2.1340    -0.2210 hc         1 YS3       0.041367
     35 H6           3.0210    -1.2590    -0.7080 hc         1 YS3       0.041367
     36 H7           1.5900    -1.2410    -1.7480 hc         1 YS3       0.041367
     37 H8           3.0190     1.2050    -0.8000 hc         1 YS3       0.050700
     38 H9           1.5070     1.2940    -1.7140 hc         1 YS3       0.050700
     39 H10          0.4560     2.5390     0.1470 hc         1 YS3       0.051200
     40 H11          1.9680     2.4500     1.0610 hc         1 YS3       0.051200
     41 H12          3.1140     3.6590    -0.8100 hc         1 YS3       0.054700
     42 H13          0.4360     4.4580    -1.8840 hc         1 YS3       0.036700
     43 H14          1.0900     2.8910    -2.3790 hc         1 YS3       0.036700
     44 H15          1.9990     4.3720    -2.7080 hc         1 YS3       0.036700
     45 H16          0.6900     5.0620     0.3980 hc         1 YS3       0.055700
     46 H17          3.1850     4.0460     1.5400 hc         1 YS3       0.043700
     47 H18          1.8580     4.8940     2.3680 hc         1 YS3       0.043700
     48 H19          4.3970     6.0300     1.1900 hc         1 YS3       0.046200
     49 H20          3.4530     6.5980     2.5970 hc         1 YS3       0.046200
     50 H21          1.7430     7.5430     1.1750 hc         1 YS3       0.066700
     51 H22          3.2290     5.5470    -2.2880 hc         1 YS3       0.040367
     52 H23          4.0690     5.1250    -0.7900 hc         1 YS3       0.040367
     53 H24          4.1260     6.7850    -1.3980 hc         1 YS3       0.040367
     54 H25          0.4820     7.3940    -0.8010 hc         1 YS3       0.045700
     55 H26          0.9030     6.3250    -2.1560 hc         1 YS3       0.045700
     56 H27          2.8750     7.7150    -2.6550 hc         1 YS3       0.042200
     57 H28          1.4070     8.6970    -2.6930 hc         1 YS3       0.042200
     58 H29          1.8890     9.6590    -0.5600 hc         1 YS3       0.049700
     59 H30          3.3810     9.7450    -1.5080 hc         1 YS3       0.049700
     60 H32          5.1200     8.0350     1.2450 ha         1 YS3       0.134000
     61 H33          4.8370    10.3930    -0.8390 ha         1 YS3       0.131000
     62 H35          8.1590    10.8240    -1.1210 hc         1 YS3       0.057950
     63 H36          6.6600    11.7630    -0.9900 hc         1 YS3       0.057950
     64 H37          8.2120     8.5020     0.4100 hc         1 YS3       0.057950
     65 H38          6.7400     8.2060     1.3560 hc         1 YS3       0.057950
     66 H39          7.2120    10.0740     2.8130 h1         1 YS3       0.046700
     67 H40          8.5460     8.6510     3.6740 ho         1 YS3       0.401500
     68 H41         10.4850    12.0620     1.4920 ha         1 YS3       0.122000
     69 H42         10.5200    10.4970     2.5270 ha         1 YS3       0.122000
     70 H43          8.6310    12.6850     0.3440 h1         1 YS3       0.046700
     71 H44          7.0390    13.4650     1.5010 ho         1 YS3       0.401500
@<TRIPOS>BOND
     1     8     7 1
     2     1     2 1
     3     3     2 1
     4     5     2 1
     5     5     6 1
     6     7     6 1
     7     7     9 1
     8     2     4 1
     9    15    16 1
    10    15    13 1
    11     9    13 1
    12     9    10 1
    13    16    17 1
    14    13    12 1
    15    13    14 1
    16    17    18 1
    17    10    11 1
    18    12    11 1
    19    12    18 1
    20    18    19 2
    21    19    20 1
    22    20    21 2
    23    21    22 1
    24    21    23 1
    25    22    28 1
    26    23    24 1
    27    29    28 1
    28    28    26 1
    29    24    26 1
    30    24    25 1
    31    26    27 2
    32     1    30 1
    33     3    31 1
    34     3    32 1
    35     3    33 1
    36     4    34 1
    37     4    35 1
    38     4    36 1
    39     5    37 1
    40     5    38 1
    41     6    39 1
    42     6    40 1
    43     7    41 1
    44     8    42 1
    45     8    43 1
    46     8    44 1
    47     9    45 1
    48    10    46 1
    49    10    47 1
    50    11    48 1
    51    11    49 1
    52    12    50 1
    53    14    51 1
    54    14    52 1
    55    14    53 1
    56    15    54 1
    57    15    55 1
    58    16    56 1
    59    16    57 1
    60    17    58 1
    61    17    59 1
    62    19    60 1
    63    20    61 1
    64    22    62 1
    65    22    63 1
    66    23    64 1
    67    23    65 1
    68    24    66 1
    69    25    67 1
    70    27    68 1
    71    27    69 1
    72    28    70 1
    73    29    71 1
@<TRIPOS>SUBSTRUCTURE
     1 YS3         1 TEMP              0 ****  ****    0 ROOT
