@<TRIPOS>MOLECULE
molecule
   42    43     1     0     0
SMALL
bcc


@<TRIPOS>ATOM
      1 O5           0.0000     0.0000     0.0000 o          1 YS4      -0.901333
      2 P2           1.4800     0.0000     0.0000 p5         1 YS4       1.070200
      3 O6           2.0180     0.0000     1.5170 o          1 YS4      -0.901333
      4 O7           2.0170    -1.3140    -0.7590 o          1 YS4      -0.901333
      5 C13          2.0870     1.4890    -0.8600 c3         1 YS4      -0.079900
      6 P1           1.4790     1.4890    -2.5790 p5         1 YS4       1.070200
      7 O3           2.0160     2.8040    -3.3370 o          1 YS4      -0.901333
      8 O2           2.0160     0.1750    -3.3380 o          1 YS4      -0.901333
      9 O4          -0.0000     1.4890    -2.5780 o          1 YS4      -0.901333
     10 N1           1.5990     2.6850    -0.1690 nu         1 YS4      -0.682900
     11 C12          2.1700     3.9240    -0.4360 ca         1 YS4       0.661200
     12 C11          3.2030     4.0200    -1.3610 ca         1 YS4      -0.119300
     13 N2           1.7190     5.0020     0.1880 nb         1 YS4      -0.867000
     14 C14          2.2280     6.2000    -0.0320 ca         1 YS4       0.442200
     15 C15          3.2580     6.3800    -0.9300 ca         1 YS4      -0.439300
     16 C10          3.7640     5.2710    -1.6180 cp         1 YS4      -0.080000
     17 C9           4.8720     5.4210    -2.5920 cp         1 YS4       0.023000
     18 C6           5.3610     4.3060    -3.2720 ca         1 YS4      -0.111500
     19 C5           6.3900     4.4480    -4.1780 ca         1 YS4      -0.192000
     20 C8           5.4240     6.6770    -2.8330 ca         1 YS4      -0.111500
     21 C7           6.4540     6.8150    -3.7400 ca         1 YS4      -0.192000
     22 C4           6.9420     5.7010    -4.4120 ca         1 YS4       0.010100
     23 O1           7.9570     5.8390    -5.3040 os         1 YS4      -0.363900
     24 C2           8.3260     4.6770    -6.0510 c3         1 YS4       0.144100
     25 C1           8.9840     5.1050    -7.3650 c3         1 YS4      -0.102100
     26 C3           9.3130     3.8400    -5.2350 c3         1 YS4      -0.102100
     27 H3           3.1710     1.4890    -0.8600 h1         1 YS4       0.034700
     28 H6           0.8690     2.6070     0.5110 hn         1 YS4       0.450800
     29 H7           3.5670     3.1370    -1.8730 ha         1 YS4       0.193000
     30 H8           1.8300     7.0550     0.5020 h4         1 YS4      -0.064900
     31 H9           3.6680     7.3670    -1.1040 ha         1 YS4       0.059000
     32 H10          4.9310     3.3280    -3.0900 ha         1 YS4       0.158000
     33 H11          6.7720     3.5820    -4.7050 ha         1 YS4       0.096000
     34 H12          5.0440     7.5460    -2.3100 ha         1 YS4       0.158000
     35 H13          6.8850     7.7910    -3.9260 ha         1 YS4       0.096000
     36 H14          7.4420     4.0880    -6.2640 h1         1 YS4       0.071700
     37 H15          9.3280     4.2270    -7.8990 hc         1 YS4       0.029367
     38 H16          8.2640     5.6390    -7.9720 hc         1 YS4       0.029367
     39 H17          9.8270     5.7510    -7.1530 hc         1 YS4       0.029367
     40 H18          9.0820     2.7880    -5.3590 hc         1 YS4       0.029367
     41 H19          9.2340     4.1060    -4.1880 hc         1 YS4       0.029367
     42 H20         10.3210     4.0310    -5.5810 hc         1 YS4       0.029367
@<TRIPOS>BOND
     1     9     6 1
     2     8     6 1
     3     6     7 1
     4     6     5 1
     5    14    13 ar
     6    14    15 ar
     7    13    11 ar
     8    15    16 ar
     9     5    10 1
    10     5     2 1
    11     1     2 1
    12    18    19 ar
    13    18    17 ar
    14    11    10 1
    15    11    12 ar
    16    16    12 ar
    17    16    17 1
    18    19    22 ar
    19     2     3 1
    20     2     4 1
    21    17    20 ar
    22    22    23 1
    23    22    21 ar
    24    20    21 ar
    25    23    24 1
    26    25    24 1
    27    24    26 1
    28     5    27 1
    29    10    28 1
    30    12    29 1
    31    14    30 1
    32    15    31 1
    33    18    32 1
    34    19    33 1
    35    20    34 1
    36    21    35 1
    37    24    36 1
    38    25    37 1
    39    25    38 1
    40    25    39 1
    41    26    40 1
    42    26    41 1
    43    26    42 1
@<TRIPOS>SUBSTRUCTURE
     1 YS4         1 TEMP              0 ****  ****    0 ROOT
