@<TRIPOS>MOLECULE
YS5
   89    91     1     0     0
SMALL
bcc


@<TRIPOS>ATOM
      1 CAV        -0.6710    0.6320    0.6580 c3        1 YS5     -0.053700
      2 CBB         0.7220    1.0930    0.2210 c3        1 YS5      0.184300
      3 OAG         0.6710    2.4150   -0.3060 oh        1 YS5     -0.598300
      4 CAY         1.6620    1.0680    1.3880 c2        1 YS5     -0.170400
      5 CAA         2.3420    2.1290    1.8210 c2        1 YS5     -0.175000
      6 CBC         1.7690   -0.2840    2.0350 c3        1 YS5      0.184300
      7 OAH         2.4280   -1.2240    1.1900 oh        1 YS5     -0.598300
      8 CAW         0.3990   -0.8760    2.3760 c3        1 YS5     -0.053700
      9 CAZ        -0.6230   -0.7060    1.3100 c2        1 YS5     -0.102400
     10 CAJ        -1.5030   -1.6630    0.9590 ce        1 YS5     -0.123000
     11 CAK        -1.6060   -2.9700    1.5690 ce        1 YS5     -0.148000
     12 CBA        -2.1020   -4.0680    0.9730 c2        1 YS5     -0.074400
     13 CAQ        -2.6280   -4.1140   -0.4250 c3        1 YS5     -0.044200
     14 CAP        -2.1570   -5.3240   -1.2160 c3        1 YS5     -0.073400
     15 CAT        -2.2050   -6.6360   -0.4530 c3        1 YS5     -0.067400
     16 CBI        -1.5090   -6.5090    0.8970 c3        1 YS5     -0.036000
     17 CAF        -0.0480   -6.1610    0.6970 c3        1 YS5     -0.083100
     18 CBG        -2.2540   -5.3750    1.6620 c3        1 YS5     -0.038500
     19 CAU        -1.8190   -5.5590    3.1070 c3        1 YS5     -0.072400
     20 CAS        -1.7210   -7.0750    3.2740 c3        1 YS5     -0.077400
     21 CBF        -1.7160   -7.7000    1.8620 c3        1 YS5     -0.056700
     22 CBD        -0.8380   -8.9510    1.8060 c3        1 YS5     -0.042700
     23 CAE         0.6250   -8.7190    2.1220 c3        1 YS5     -0.091100
     24 CBE        -1.0010   -9.7200    0.4870 c3        1 YS5     -0.049700
     25 CAX        -2.4270  -10.1980    0.2410 c3        1 YS5     -0.067400
     26 CBH        -3.1940  -11.0120    1.2960 c3        1 YS5      0.160800
     27 CAN        -2.3610  -12.1540    1.8880 c3        1 YS5     -0.110900
     28 CAD        -3.1430  -13.1330    2.7260 c3        1 YS5     -0.094600
     29 OAI        -3.5620  -10.0940    2.3270 oh        1 YS5     -0.599800
     30 CAM        -4.4700  -11.5850    0.6470 c3        1 YS5     -0.110900
     31 CAC        -5.3160  -10.5390   -0.0290 c3        1 YS5     -0.094600
     32 CAR         0.0470  -10.8170    0.3370 c3        1 YS5     -0.082400
     33 CAO        -0.0810  -11.6080   -0.9490 c3        1 YS5     -0.080400
     34 CAL         1.1690  -12.4240   -1.2140 c3        1 YS5     -0.081400
     35 CAB         1.0300  -13.2570   -2.4610 c3        1 YS5     -0.093100
     36 H1         -1.3460    0.6200   -0.2380 hc        1 YS5      0.058200
     37 H2         -1.0900    1.3810    1.3830 hc        1 YS5      0.058200
     38 H3          1.1200    0.3940   -0.5730 h1        1 YS5      0.044700
     39 H4          0.0250    2.3970   -1.0220 ho        1 YS5      0.402000
     40 H6          3.0280    2.0790    2.6770 ha        1 YS5      0.124000
     41 H8          2.2470    3.1150    1.3430 ha        1 YS5      0.124000
     42 H9          2.3690   -0.1980    2.9900 h1        1 YS5      0.044700
     43 H10         3.2020   -0.7790    0.8260 ho        1 YS5      0.402000
     44 H11         0.5520   -1.9650    2.6050 hc        1 YS5      0.058200
     45 H12         0.0290   -0.3700    3.3090 hc        1 YS5      0.058200
     46 H14        -2.2330   -1.4510    0.1560 ha        1 YS5      0.119000
     47 H15        -1.2560   -3.0400    2.6150 ha        1 YS5      0.126000
     48 H17        -2.3370   -3.1910   -0.9910 hc        1 YS5      0.045200
     49 H18        -3.7520   -4.1300   -0.3650 hc        1 YS5      0.045200
     50 H19        -2.7950   -5.4160   -2.1350 hc        1 YS5      0.039700
     51 H20        -1.1040   -5.1440   -1.5620 hc        1 YS5      0.039700
     52 H21        -1.7160   -7.4290   -1.0750 hc        1 YS5      0.039700
     53 H22        -3.2730   -6.9440   -0.2950 hc        1 YS5      0.039700
     54 H23         0.0580   -5.1350    0.2650 hc        1 YS5      0.037700
     55 H24         0.4290   -6.8880   -0.0030 hc        1 YS5      0.037700
     56 H25         0.4960   -6.1790    1.6720 hc        1 YS5      0.037700
     57 H26        -3.3610   -5.6170    1.6250 hc        1 YS5      0.054700
     58 H27        -2.5550   -5.1130    3.8180 hc        1 YS5      0.042200
     59 H28        -0.8260   -5.0790    3.2920 hc        1 YS5      0.042200
     60 H29        -0.8080   -7.3430    3.8580 hc        1 YS5      0.041700
     61 H30        -2.6020   -7.4670    3.8420 hc        1 YS5      0.041700
     62 H31        -2.7700   -8.0660    1.6730 hc        1 YS5      0.066700
     63 H32        -1.2510   -9.6150    2.6260 hc        1 YS5      0.056700
     64 H33         0.7580   -7.9490    2.9190 hc        1 YS5      0.032367
     65 H34         1.1940   -8.3830    1.2220 hc        1 YS5      0.032367
     66 H35         1.0870   -9.6690    2.4910 hc        1 YS5      0.032367
     67 H36        -0.7850   -8.9820   -0.3450 hc        1 YS5      0.045700
     68 H37        -2.4330  -10.8110   -0.7000 hc        1 YS5      0.050200
     69 H38        -3.0480   -9.2800    0.0390 hc        1 YS5      0.050200
     70 H39        -1.5570  -11.6990    2.5260 hc        1 YS5      0.049450
     71 H40        -1.8670  -12.7030    1.0430 hc        1 YS5      0.049450
     72 H41        -2.4390  -13.8210    3.2550 hc        1 YS5      0.035533
     73 H42        -3.8230  -13.7540    2.0940 hc        1 YS5      0.035533
     74 H43        -3.7580  -12.6070    3.4950 hc        1 YS5      0.035533
     75 H44        -4.0910  -10.5850    2.9660 ho        1 YS5      0.396000
     76 H45        -5.0820  -12.0800    1.4480 hc        1 YS5      0.049450
     77 H46        -4.1710  -12.3760   -0.0880 hc        1 YS5      0.049450
     78 H47        -5.4400   -9.6520    0.6390 hc        1 YS5      0.035533
     79 H48        -6.3260  -10.9550   -0.2640 hc        1 YS5      0.035533
     80 H49        -4.8480  -10.2000   -0.9840 hc        1 YS5      0.035533
     81 H50         1.0650  -10.3390    0.3390 hc        1 YS5      0.042200
     82 H51         0.0180  -11.5130    1.2140 hc        1 YS5      0.042200
     83 H52        -0.2600  -10.9100   -1.8080 hc        1 YS5      0.038200
     84 H53        -0.9620  -12.3010   -0.8930 hc        1 YS5      0.038200
     85 H54         2.0500  -11.7360   -1.3170 hc        1 YS5      0.038700
     86 H55         1.3720  -13.0900   -0.3340 hc        1 YS5      0.038700
     87 H56         0.1780  -13.9730   -2.3650 hc        1 YS5      0.032367
     88 H57         1.9630  -13.8430   -2.6430 hc        1 YS5      0.032367
     89 H58         0.8420  -12.6080   -3.3500 hc        1 YS5      0.032367
@<TRIPOS>BOND
     1    1    2 1   
     2    1    9 1   
     3    1   36 1   
     4    1   37 1   
     5    2    3 1   
     6    2    4 1   
     7    2   38 1   
     8    3   39 1   
     9    4    5 2   
    10    4    6 1   
    11    5   40 1   
    12    5   41 1   
    13    6    7 1   
    14    6    8 1   
    15    6   42 1   
    16    7   43 1   
    17    8    9 1   
    18    8   44 1   
    19    8   45 1   
    20    9   10 2   
    21   10   11 1   
    22   10   46 1   
    23   11   12 2   
    24   11   47 1   
    25   12   13 1   
    26   12   18 1   
    27   13   14 1   
    28   13   48 1   
    29   13   49 1   
    30   14   15 1   
    31   14   50 1   
    32   14   51 1   
    33   15   16 1   
    34   15   52 1   
    35   15   53 1   
    36   16   17 1   
    37   16   18 1   
    38   16   21 1   
    39   17   54 1   
    40   17   55 1   
    41   17   56 1   
    42   18   19 1   
    43   18   57 1   
    44   19   20 1   
    45   19   58 1   
    46   19   59 1   
    47   20   21 1   
    48   20   60 1   
    49   20   61 1   
    50   21   22 1   
    51   21   62 1   
    52   22   23 1   
    53   22   24 1   
    54   22   63 1   
    55   23   64 1   
    56   23   65 1   
    57   23   66 1   
    58   24   25 1   
    59   24   32 1   
    60   24   67 1   
    61   25   26 1   
    62   25   68 1   
    63   25   69 1   
    64   26   27 1   
    65   26   29 1   
    66   26   30 1   
    67   27   28 1   
    68   27   70 1   
    69   27   71 1   
    70   28   72 1   
    71   28   73 1   
    72   28   74 1   
    73   29   75 1   
    74   30   31 1   
    75   30   76 1   
    76   30   77 1   
    77   31   78 1   
    78   31   79 1   
    79   31   80 1   
    80   32   33 1   
    81   32   81 1   
    82   32   82 1   
    83   33   34 1   
    84   33   83 1   
    85   33   84 1   
    86   34   35 1   
    87   34   85 1   
    88   34   86 1   
    89   35   87 1   
    90   35   88 1   
    91   35   89 1   
@<TRIPOS>SUBSTRUCTURE
     1 YS5         1 TEMP              0 ****  ****    0 ROOT
