@<TRIPOS>MOLECULE
YS6
   18    18     1     0     0
SMALL
bcc


@<TRIPOS>ATOM
      1 S            0.0000     0.0000     0.0000 s          1 YS6      -0.336400
      2 C5           1.7120     0.0000     0.0000 cs         1 YS6      -0.192600
      3 N2           2.3860     0.0000     1.1670 nz         1 YS6       0.318600
      4 N1           2.3850    -0.0070    -1.1680 ns         1 YS6       0.292900
      5 C4           1.6930    -0.1300    -2.3720 ca         1 YS6      -0.213400
      6 C            2.0540     0.6290    -3.4850 ca         1 YS6      -0.167800
      7 C3           0.6270    -1.0200    -2.4960 ca         1 YS6      -0.167800
      8 C2          -0.0320    -1.1120    -3.7050 ca         1 YS6       0.431700
      9 N            0.3360    -0.3730    -4.7330 nb         1 YS6      -0.509000
     10 C1           1.3440     0.4770    -4.6570 ca         1 YS6       0.431700
     11 H21N         3.0210    -0.7740     1.1860 hn         1 YS6       0.228467
     12 H22N         2.8990     0.8550     1.2560 hn         1 YS6       0.228467
     13 H1           3.3780     0.1230    -1.1730 hn         1 YS6       0.154500
     14 H            2.8790     1.3280    -3.4290 ha         1 YS6       0.132500
     15 H3           0.3200    -1.6300    -1.6550 ha         1 YS6       0.132500
     16 HA           1.6150     1.0640    -5.5270 h4         1 YS6       0.004600
     17 H2          -0.8630    -1.7990    -3.8100 h4         1 YS6       0.004600
     18 H23          1.7370    -0.0410     1.9280 hn         1 YS6       0.228467
@<TRIPOS>BOND
     1     1     2 2   
     2     2     3 1   
     3     2     4 1   
     4     3    11 1   
     5     3    12 1   
     6     3    18 1   
     7     4     5 1   
     8     4    13 1   
     9     5     6 ar  
    10     5     7 ar  
    11     6    10 ar  
    12     6    14 1   
    13     7     8 ar  
    14     7    15 1   
    15     8     9 ar  
    16     8    17 1   
    17     9    10 ar  
    18    10    16 1   
@<TRIPOS>SUBSTRUCTURE
     1 YS6         1 TEMP              0 ****  ****    0 ROOT
