@<TRIPOS>MOLECULE
molecule
   86    88     1     0     0
SMALL
bcc


@<TRIPOS>ATOM
      1 O30          0.0000     0.0000     0.0000 oh         1 YS9      -0.603800
      2 C27          1.4290     0.0000     0.0000 c3         1 YS9       0.146800
      3 C29          1.9380     0.0000     1.4430 c3         1 YS9      -0.121100
      4 C28          1.9390    -1.2500    -0.7200 c3         1 YS9      -0.121100
      5 C26          1.9390     1.2480    -0.7220 c3         1 YS9      -0.065400
      6 C25          1.5340     2.4950     0.0680 c3         1 YS9      -0.082400
      7 C20          2.1320     3.7360    -0.5980 c3         1 YS9      -0.071700
      8 C21          1.8290     4.9690     0.2560 c3         1 YS9      -0.079400
      9 C22          2.5740     4.8610     1.5880 c3         1 YS9      -0.084400
     10 C23          2.1850     6.0380     2.4860 c3         1 YS9      -0.084400
     11 C24          2.9310     5.9310     3.8180 c3         1 YS9      -0.092100
     12 C18          1.5170     3.9160    -1.9880 c3         1 YS9      -0.068700
     13 C19          0.0110     4.1470    -1.8530 c3         1 YS9      -0.094100
     14 C17          2.1580     5.1210    -2.6780 c3         1 YS9      -0.055700
     15 C16          3.6960     4.9350    -2.7690 c3         1 YS9      -0.081400
     16 C15          4.0600     5.0340    -4.2770 c3         1 YS9      -0.078400
     17 C13          1.6850     5.2180    -4.1200 c3         1 YS9      -0.060000
     18 C14          2.9020     5.8540    -4.8510 c3         1 YS9      -0.035500
     19 C34          1.4650     3.8090    -4.6750 c3         1 YS9      -0.091100
     20 C12          0.4730     6.0680    -4.4210 c3         1 YS9      -0.065400
     21 C11          0.1490     5.9020    -5.9160 c3         1 YS9      -0.078400
     22 C10          1.3200     6.3260    -6.7990 c3         1 YS9      -0.043200
     23 C9           2.6220     5.6910    -6.3150 c2         1 YS9      -0.094400
     24 C8           3.4470     5.0420    -7.1300 ce         1 YS9      -0.153000
     25 C7           3.1210     4.9150    -8.5590 ce         1 YS9      -0.131000
     26 C6           3.8890     4.1780    -9.3520 c2         1 YS9      -0.111400
     27 C1           3.6490     4.1480   -10.8440 c3         1 YS9      -0.049200
     28 C2           4.9500     4.5390   -11.5580 c3         1 YS9       0.193800
     29 O32          5.2140     5.9280   -11.3460 oh         1 YS9      -0.603800
     30 C5           5.0240     3.3580    -8.7800 c3         1 YS9      -0.049200
     31 C4           6.3220     3.7520    -9.4970 c3         1 YS9       0.193800
     32 O31          7.3580     2.8290    -9.1560 oh         1 YS9      -0.603800
     33 C3           6.0810     3.7150   -10.9840 c2         1 YS9      -0.151400
     34 C33          6.8410     2.9890   -11.7660 c2         1 YS9      -0.193000
     35 H1          -0.3140    -0.8470     0.2700 ho         1 YS9       0.400000
     36 H2           2.9600     0.3570     1.4650 hc         1 YS9       0.041367
     37 H3           1.8990    -1.0070     1.8390 hc         1 YS9       0.041367
     38 H4           1.3150     0.6500     2.0460 hc         1 YS9       0.041367
     39 H5           1.5510    -1.2680    -1.7320 hc         1 YS9       0.041367
     40 H6           1.6050    -2.1340    -0.1900 hc         1 YS9       0.041367
     41 H7           3.0220    -1.2340    -0.7500 hc         1 YS9       0.041367
     42 H8           3.0190     1.2040    -0.8000 hc         1 YS9       0.050200
     43 H9           1.5070     1.2930    -1.7140 hc         1 YS9       0.050200
     44 H10          1.9050     2.4160     1.0830 hc         1 YS9       0.054200
     45 H11          0.4540     2.5780     0.0840 hc         1 YS9       0.054200
     46 H12          3.2040     3.6150    -0.6900 hc         1 YS9       0.050700
     47 H13          0.7640     5.0270     0.4410 hc         1 YS9       0.044700
     48 H14          2.1540     5.8600    -0.2690 hc         1 YS9       0.044700
     49 H15          3.6420     4.8830     1.4070 hc         1 YS9       0.041200
     50 H16          2.3090     3.9310     2.0760 hc         1 YS9       0.041200
     51 H17          1.1170     6.0160     2.6670 hc         1 YS9       0.039700
     52 H18          2.4500     6.9680     1.9970 hc         1 YS9       0.039700
     53 H19          2.6330     5.0220     4.3270 hc         1 YS9       0.032033
     54 H20          3.9980     5.9100     3.6340 hc         1 YS9       0.032033
     55 H21          2.6880     6.7870     4.4370 hc         1 YS9       0.032033
     56 H22          1.6940     3.0250    -2.5790 hc         1 YS9       0.062700
     57 H23         -0.3150     3.8390    -0.8670 hc         1 YS9       0.037367
     58 H24         -0.5120     3.5670    -2.6040 hc         1 YS9       0.037367
     59 H25         -0.2070     5.1990    -1.9930 hc         1 YS9       0.037367
     60 H26          1.9230     6.0350    -2.1450 hc         1 YS9       0.056700
     61 H27          3.9750     3.9620    -2.3830 hc         1 YS9       0.044200
     62 H28          4.1980     5.7190    -2.2150 hc         1 YS9       0.044200
     63 H29          5.0000     5.5550    -4.4100 hc         1 YS9       0.046700
     64 H30          4.0910     4.0490    -4.7280 hc         1 YS9       0.046700
     65 H31          3.0020     6.9010    -4.5890 hc         1 YS9       0.065700
     66 H32          2.1790     3.1290    -4.2270 hc         1 YS9       0.040367
     67 H33          0.4590     3.4820    -4.4410 hc         1 YS9       0.040367
     68 H34          1.6010     3.8190    -5.7500 hc         1 YS9       0.040367
     69 H35         -0.3670     5.7320    -3.8250 hc         1 YS9       0.045200
     70 H36          0.6920     7.1070    -4.2060 hc         1 YS9       0.045200
     71 H37         -0.0800     4.8620    -6.1120 hc         1 YS9       0.042700
     72 H38         -0.7130     6.5110    -6.1580 hc         1 YS9       0.042700
     73 H39          1.4170     7.4050    -6.7670 hc         1 YS9       0.049700
     74 H40          1.1290     6.0110    -7.8180 hc         1 YS9       0.049700
     75 H41          4.3900     4.6640    -6.7550 ha         1 YS9       0.135000
     76 H42          2.3130     5.5010    -8.9810 ha         1 YS9       0.131000
     77 H43          2.8690     4.8540   -11.1000 hc         1 YS9       0.057950
     78 H44          3.3570     3.1490   -11.1450 hc         1 YS9       0.057950
     79 H45          4.8570     4.3380   -12.6180 h1         1 YS9       0.046700
     80 H46          5.2440     6.3720   -12.1780 ho         1 YS9       0.401500
     81 H47          4.8270     2.3050    -8.9390 hc         1 YS9       0.057950
     82 H48          5.1200     3.5610    -7.7200 hc         1 YS9       0.057950
     83 H49          6.6090     4.7540    -9.2020 h1         1 YS9       0.046700
     84 H50          7.9980     3.2610    -8.6140 ho         1 YS9       0.401500
     85 H51          6.6610     2.9720   -12.8340 ha         1 YS9       0.121500
     86 H52          7.6480     2.4020   -11.3430 ha         1 YS9       0.121500
@<TRIPOS>BOND
     1    34    33 2
     2    32    31 1
     3    33    31 1
     4    33    28 1
     5    31    30 1
     6    28    29 1
     7    28    27 1
     8    30    26 1
     9    27    26 1
    10    26    25 2
    11    25    24 1
    12    24    23 2
    13    23    18 1
    14    23    22 1
    15    16    18 1
    16    16    15 1
    17    19    17 1
    18    18    17 1
    19    15    14 1
    20    22    21 1
    21    17    14 1
    22    17    20 1
    23     4     2 1
    24    21    20 1
    25    14    12 1
    26     5     2 1
    27     5     6 1
    28    12     7 1
    29    12    13 1
    30     2     1 1
    31     2     3 1
    32     7     6 1
    33     7     8 1
    34    11    10 1
    35    10     9 1
    36     8     9 1
    37     1    35 1
    38     3    36 1
    39     3    37 1
    40     3    38 1
    41     4    39 1
    42     4    40 1
    43     4    41 1
    44     5    42 1
    45     5    43 1
    46     6    44 1
    47     6    45 1
    48     7    46 1
    49     8    47 1
    50     8    48 1
    51     9    49 1
    52     9    50 1
    53    10    51 1
    54    10    52 1
    55    11    53 1
    56    11    54 1
    57    11    55 1
    58    12    56 1
    59    13    57 1
    60    13    58 1
    61    13    59 1
    62    14    60 1
    63    15    61 1
    64    15    62 1
    65    16    63 1
    66    16    64 1
    67    18    65 1
    68    19    66 1
    69    19    67 1
    70    19    68 1
    71    20    69 1
    72    20    70 1
    73    21    71 1
    74    21    72 1
    75    22    73 1
    76    22    74 1
    77    24    75 1
    78    25    76 1
    79    27    77 1
    80    27    78 1
    81    28    79 1
    82    29    80 1
    83    30    81 1
    84    30    82 1
    85    31    83 1
    86    32    84 1
    87    34    85 1
    88    34    86 1
@<TRIPOS>SUBSTRUCTURE
     1 YS9         1 TEMP              0 ****  ****    0 ROOT
