@<TRIPOS>MOLECULE
YS9
   86    88     1     0     0
SMALL
bcc


@<TRIPOS>ATOM
      1 O30         0.8010   -0.3860   -0.5880 oh        1 YS9     -0.597800
      2 C27         2.0190   -0.1370    0.1180 c3        1 YS9      0.147800
      3 C29         1.7850   -0.2620    1.6180 c3        1 YS9     -0.123600
      4 C28         3.0820   -1.1370   -0.3260 c3        1 YS9     -0.123600
      5 C26         2.4540    1.2800   -0.2720 c3        1 YS9     -0.065400
      6 C25         1.4650    2.3400    0.1620 c3        1 YS9     -0.078400
      7 C20         1.8050    3.7050   -0.4300 c3        1 YS9     -0.061700
      8 C21         1.3010    4.8260    0.4700 c3        1 YS9     -0.075400
      9 C22         2.2130    5.0620    1.6560 c3        1 YS9     -0.080400
     10 C23         1.6780    6.1640    2.5460 c3        1 YS9     -0.080400
     11 C24         2.5830    6.4110    3.7250 c3        1 YS9     -0.092100
     12 C18         1.2460    3.8250   -1.8590 c3        1 YS9     -0.053700
     13 C19        -0.2330    4.1590   -1.8290 c3        1 YS9     -0.089100
     14 C17         2.0430    4.8400   -2.6730 c3        1 YS9     -0.054700
     15 C16         3.5390    4.4700   -2.7550 c3        1 YS9     -0.079400
     16 C15         4.0420    4.8590   -4.1460 c3        1 YS9     -0.073400
     17 C13         1.6250    5.0250   -4.1520 c3        1 YS9     -0.040000
     18 C14         2.9060    5.6740   -4.7480 c3        1 YS9     -0.036500
     19 C34         1.3390    3.6840   -4.8060 c3        1 YS9     -0.083100
     20 C12         0.4830    5.9990   -4.3980 c3        1 YS9     -0.067400
     21 C11         0.3220    6.2760   -5.8820 c3        1 YS9     -0.072400
     22 C10         1.6050    6.6890   -6.5850 c3        1 YS9     -0.044200
     23 C9          2.7880    5.8530   -6.2180 c2        1 YS9     -0.079400
     24 C8          3.6800    5.3690   -7.0980 ce        1 YS9     -0.148000
     25 C7          3.6360    5.5840   -8.5280 ce        1 YS9     -0.120000
     26 C6          4.0990    4.7320   -9.4620 c2        1 YS9     -0.106400
     27 C1          3.9910    5.0730  -10.9110 c3        1 YS9     -0.034200
     28 C2          5.2590    4.7720  -11.7130 c3        1 YS9      0.183300
     29 O32         6.1830    5.8220  -11.4410 oh        1 YS9     -0.594300
     30 C5          4.6830    3.3990   -9.1590 c3        1 YS9     -0.034200
     31 C4          6.0150    3.2180   -9.8920 c3        1 YS9      0.183300
     32 O31         6.4790    1.9160   -9.5610 oh        1 YS9     -0.594300
     33 C3          5.8280    3.4240  -11.3660 c2        1 YS9     -0.193400
     34 C33         6.1070    2.5090  -12.2940 c2        1 YS9     -0.199000
     35 H1          0.5230   -1.2780   -0.3520 ho        1 YS9      0.396000
     36 H2          0.8860    0.3290    1.9150 hc        1 YS9      0.042533
     37 H3          2.6720    0.1180    2.1760 hc        1 YS9      0.042533
     38 H4          1.6140   -1.3300    1.8960 hc        1 YS9      0.042533
     39 H5          2.7630   -2.1770   -0.0760 hc        1 YS9      0.042533
     40 H6          3.2340   -1.0670   -1.4300 hc        1 YS9      0.042533
     41 H7          4.0470   -0.9230    0.1890 hc        1 YS9      0.042533
     42 H8          3.4550    1.4760    0.1920 hc        1 YS9      0.047200
     43 H9          2.5780    1.3140   -1.3870 hc        1 YS9      0.047200
     44 H10         1.4690    2.4090    1.2820 hc        1 YS9      0.050200
     45 H11         0.4320    2.0290   -0.1480 hc        1 YS9      0.050200
     46 H12         2.9280    3.7860   -0.4810 hc        1 YS9      0.047700
     47 H13         1.2280    5.7760   -0.1230 hc        1 YS9      0.041700
     48 H14         0.2670    4.5820    0.8320 hc        1 YS9      0.041700
     49 H15         2.3190    4.1180    2.2530 hc        1 YS9      0.038200
     50 H16         3.2380    5.3390    1.2940 hc        1 YS9      0.038200
     51 H17         1.5710    7.1080    1.9490 hc        1 YS9      0.038700
     52 H18         0.6530    5.8860    2.9100 hc        1 YS9      0.038700
     53 H19         3.6020    6.7130    3.3830 hc        1 YS9      0.031700
     54 H20         2.1710    7.2260    4.3680 hc        1 YS9      0.031700
     55 H21         2.6820    5.4890    4.3470 hc        1 YS9      0.031700
     56 H22         1.3640    2.8170   -2.3510 hc        1 YS9      0.057700
     57 H23        -0.7150    3.8880   -2.7990 hc        1 YS9      0.034033
     58 H24        -0.7460    3.5850   -1.0190 hc        1 YS9      0.034033
     59 H25        -0.3940    5.2490   -1.6450 hc        1 YS9      0.034033
     60 H26         1.9470    5.8410   -2.1680 hc        1 YS9      0.046700
     61 H27         4.1120    5.0140   -1.9650 hc        1 YS9      0.041700
     62 H28         3.6800    3.3730   -2.5890 hc        1 YS9      0.041700
     63 H29         4.9850    5.4540   -4.0910 hc        1 YS9      0.044200
     64 H30         4.2480    3.9440   -4.7560 hc        1 YS9      0.044200
     65 H31         2.9860    6.7180   -4.3140 hc        1 YS9      0.054700
     66 H32         0.3370    3.3020   -4.4960 hc        1 YS9      0.038367
     67 H33         2.1130    2.9340   -4.5100 hc        1 YS9      0.038367
     68 H34         1.3550    3.7800   -5.9190 hc        1 YS9      0.038367
     69 H35        -0.4780    5.5840   -3.9980 hc        1 YS9      0.042200
     70 H36         0.6880    6.9580   -3.8530 hc        1 YS9      0.042200
     71 H37        -0.0870    5.3570   -6.3810 hc        1 YS9      0.040200
     72 H38        -0.4370    7.0920   -6.0190 hc        1 YS9      0.040200
     73 H39         1.8440    7.7550   -6.3140 hc        1 YS9      0.046700
     74 H40         1.4250    6.6580   -7.6920 hc        1 YS9      0.046700
     75 H41         4.5370    4.7770   -6.7270 ha        1 YS9      0.128000
     76 H42         3.1950    6.5450   -8.8520 ha        1 YS9      0.123000
     77 H43         3.1540    4.4710  -11.3580 hc        1 YS9      0.062950
     78 H44         3.7490    6.1610  -11.0430 hc        1 YS9      0.062950
     79 H45         5.0060    4.8060  -12.8140 h1        1 YS9      0.044700
     80 H46         7.0200    5.5700  -11.8480 ho        1 YS9      0.399500
     81 H47         3.9710    2.5950   -9.4870 hc        1 YS9      0.062950
     82 H48         4.8590    3.2580   -8.0620 hc        1 YS9      0.062950
     83 H49         6.7570    3.9860   -9.5220 h1        1 YS9      0.044700
     84 H50         7.3510    1.8220   -9.9640 ho        1 YS9      0.399500
     85 H51         5.9590    2.6920  -13.3670 ha        1 YS9      0.119500
     86 H52         6.4880    1.5110  -12.0380 ha        1 YS9      0.119500
@<TRIPOS>BOND
     1    1    2 1   
     2    1   35 1   
     3    2    3 1   
     4    2    4 1   
     5    2    5 1   
     6    3   36 1   
     7    3   37 1   
     8    3   38 1   
     9    4   39 1   
    10    4   40 1   
    11    4   41 1   
    12    5    6 1   
    13    5   42 1   
    14    5   43 1   
    15    6    7 1   
    16    6   44 1   
    17    6   45 1   
    18    7    8 1   
    19    7   12 1   
    20    7   46 1   
    21    8    9 1   
    22    8   47 1   
    23    8   48 1   
    24    9   10 1   
    25    9   49 1   
    26    9   50 1   
    27   10   11 1   
    28   10   51 1   
    29   10   52 1   
    30   11   53 1   
    31   11   54 1   
    32   11   55 1   
    33   12   13 1   
    34   12   14 1   
    35   12   56 1   
    36   13   57 1   
    37   13   58 1   
    38   13   59 1   
    39   14   15 1   
    40   14   17 1   
    41   14   60 1   
    42   15   16 1   
    43   15   61 1   
    44   15   62 1   
    45   16   18 1   
    46   16   63 1   
    47   16   64 1   
    48   17   18 1   
    49   17   19 1   
    50   17   20 1   
    51   18   23 1   
    52   18   65 1   
    53   19   66 1   
    54   19   67 1   
    55   19   68 1   
    56   20   21 1   
    57   20   69 1   
    58   20   70 1   
    59   21   22 1   
    60   21   71 1   
    61   21   72 1   
    62   22   23 1   
    63   22   73 1   
    64   22   74 1   
    65   23   24 2   
    66   24   25 1   
    67   24   75 1   
    68   25   26 2   
    69   25   76 1   
    70   26   27 1   
    71   26   30 1   
    72   27   28 1   
    73   27   77 1   
    74   27   78 1   
    75   28   29 1   
    76   28   33 1   
    77   28   79 1   
    78   29   80 1   
    79   30   31 1   
    80   30   81 1   
    81   30   82 1   
    82   31   32 1   
    83   31   33 1   
    84   31   83 1   
    85   32   84 1   
    86   33   34 2   
    87   34   85 1   
    88   34   86 1   
@<TRIPOS>SUBSTRUCTURE
     1 YS9         1 TEMP              0 ****  ****    0 ROOT
