@<TRIPOS>MOLECULE
YSA
   59    62     1     0     0
SMALL
bcc


@<TRIPOS>ATOM
      1 CD1          0.0000     0.0000     0.0000 ca         1 YSA      -0.076000
      2 CE1          1.3810     0.0000     0.0000 ca         1 YSA      -0.117500
      3 CZ           2.0730     0.0000     1.2020 ca         1 YSA       0.173100
      4 OH           3.4320    -0.0060     1.2060 oh         1 YSA      -0.483100
      5 CE2          1.3760     0.0050     2.4020 ca         1 YSA      -0.117500
      6 CD2         -0.0060     0.0100     2.3960 ca         1 YSA      -0.076000
      7 CG          -0.6940     0.0110     1.1960 ca         1 YSA      -0.208300
      8 CB          -2.2000     0.0170     1.1930 c3         1 YSA       0.050900
      9 CA          -2.7040     1.4610     1.1890 c3         1 YSA      -0.164500
     10 N           -2.3160     2.1190     2.4450 nz         1 YSA       0.086400
     11 C           -4.2060     1.4690     1.0620 c          1 YSA       0.640100
     12 O           -4.8960     1.6270     2.0460 o          1 YSA      -0.566100
     13 NAT         -4.7810     1.3010    -0.1460 ns         1 YSA      -0.324300
     14 SBI         -6.4300     1.3100    -0.2860 s6         1 YSA       1.364100
     15 OAD         -6.7010     1.1670    -1.6740 o          1 YSA      -0.554300
     16 OAE         -6.9090     0.4480     0.7390 o          1 YSA      -0.554300
     17 O5'         -6.9120     2.7040     0.0890 os         1 YSA      -0.407500
     18 C5'         -6.5990     3.5590    -1.0130 c3         1 YSA       0.203400
     19 C4'         -7.0590     4.9840    -0.6990 c3         1 YSA       0.157100
     20 O4'         -6.2800     5.5220     0.3820 os         1 YSA      -0.411600
     21 C3'         -6.8330     5.8890    -1.9260 c3         1 YSA       0.130100
     22 O3'         -8.0680     6.4460    -2.3790 oh         1 YSA      -0.538800
     23 C2'         -5.8930     7.0060    -1.4010 c3         1 YSA       0.129100
     24 O2'         -6.2800     8.2820    -1.9190 oh         1 YSA      -0.528800
     25 C1'         -6.1290     6.9360     0.1290 c3         1 YSA       0.157800
     26 N9          -4.9740     7.4690     0.8570 na         1 YSA       0.216000
     27 C8          -3.8940     6.7580     1.2890 cc         1 YSA       0.236700
     28 N7          -3.0570     7.5460     1.8980 nd         1 YSA      -0.503100
     29 C5          -3.5450     8.8100     1.8950 ca         1 YSA      -0.193200
     30 C4          -4.7780     8.7770     1.2210 ca         1 YSA       0.245800
     31 N3          -5.4710     9.9030     1.0870 nb         1 YSA      -0.602000
     32 C2          -5.0070    11.0380     1.5670 ca         1 YSA       0.656900
     33 N1          -3.8530    11.1200     2.2010 nb         1 YSA      -0.641000
     34 C6          -3.0920    10.0460     2.3890 ca         1 YSA       0.605200
     35 N6          -1.8840    10.1410     3.0550 nv         1 YSA      -0.646500
     36 HD1         -0.5410     0.0010    -0.9390 ha         1 YSA       0.103000
     37 HE1          1.9240    -0.0090    -0.9380 ha         1 YSA       0.134000
     38 HOH          3.7510     0.8820     1.1950 ho         1 YSA       0.418000
     39 HE2          1.9140     0.0040     3.3420 ha         1 YSA       0.134000
     40 HD2         -0.5510     0.0160     3.3320 ha         1 YSA       0.103000
     41 HB1         -2.5660    -0.4910     2.0770 hc         1 YSA       0.058200
     42 HB2         -2.5610    -0.4930     0.3080 hc         1 YSA       0.058200
     43 HA          -2.2680     1.9940     0.3520 hx         1 YSA       0.094700
     44 HN1         -1.3540     2.3910     2.3950 hn         1 YSA       0.234133
     45 HN2         -2.4440     1.4840     3.2080 hn         1 YSA       0.234133
     46 HAT         -4.2100     1.1590    -0.9560 hn         1 YSA       0.243500
     47 H5'1        -5.5290     3.5530    -1.1820 h1         1 YSA       0.028200
     48 H5'2        -7.1070     3.2030    -1.9010 h1         1 YSA       0.028200
     49 H4'         -8.1080     4.9860    -0.4310 h1         1 YSA       0.069700
     50 H3'         -6.3490     5.3330    -2.7190 h1         1 YSA       0.009700
     51 H3          -8.2160     6.1950    -3.2760 ho         1 YSA       0.400000
     52 H2'         -4.8610     6.7820    -1.6410 h1         1 YSA       0.013700
     53 H1          -5.8250     8.4430    -2.7290 ho         1 YSA       0.397000
     54 H1'         -7.0340     7.4670     0.3980 h2         1 YSA       0.084700
     55 H8          -3.6940     5.6990     1.1810 h5         1 YSA       0.003800
     56 H2          -5.5950    11.9380     1.4360 h5         1 YSA       0.008100
     57 HN61        -1.8490    10.0240     4.0480 hn         1 YSA       0.284800
     58 HN62        -1.0460    10.3410     2.5450 hn         1 YSA       0.284800
     59 HN3         -2.8750     2.9380     2.5780 hn         1 YSA       0.234133
@<TRIPOS>BOND
     1     1     2 ar  
     2     1     7 ar  
     3     1    36 1   
     4     2     3 ar  
     5     2    37 1   
     6     3     4 1   
     7     3     5 ar  
     8     4    38 1   
     9     5     6 ar  
    10     5    39 1   
    11     6     7 ar  
    12     6    40 1   
    13     7     8 1   
    14     8     9 1   
    15     8    41 1   
    16     8    42 1   
    17     9    10 1   
    18     9    11 1   
    19     9    43 1   
    20    10    44 1   
    21    10    45 1   
    22    10    59 1   
    23    11    12 2   
    24    11    13 1   
    25    13    14 1   
    26    13    46 1   
    27    14    15 2   
    28    14    16 2   
    29    14    17 1   
    30    17    18 1   
    31    18    19 1   
    32    18    47 1   
    33    18    48 1   
    34    19    20 1   
    35    19    21 1   
    36    19    49 1   
    37    20    25 1   
    38    21    22 1   
    39    21    23 1   
    40    21    50 1   
    41    22    51 1   
    42    23    24 1   
    43    23    25 1   
    44    23    52 1   
    45    24    53 1   
    46    25    26 1   
    47    25    54 1   
    48    26    27 1   
    49    26    30 1   
    50    27    28 2   
    51    27    55 1   
    52    28    29 1   
    53    29    30 ar  
    54    29    34 ar  
    55    30    31 ar  
    56    31    32 ar  
    57    32    33 ar  
    58    32    56 1   
    59    33    34 ar  
    60    34    35 1   
    61    35    57 1   
    62    35    58 1   
@<TRIPOS>SUBSTRUCTURE
     1 YSA         1 TEMP              0 ****  ****    0 ROOT
