@<TRIPOS>MOLECULE
YSD
   77    79     1     0     0
SMALL
bcc


@<TRIPOS>ATOM
      1 CAB        -0.2660   -0.9700    0.5870 c3        1 YSD     -0.093600
      2 CAK         1.2300   -0.8470    0.4720 c3        1 YSD     -0.108400
      3 CBD         1.8960   -0.0890    1.6290 c3        1 YSD      0.152800
      4 CAL         1.1510    1.2250    1.9060 c3        1 YSD     -0.108400
      5 CAC         1.8050    2.0630    2.9730 c3        1 YSD     -0.093600
      6 OAH         1.9090   -0.9020    2.8030 oh        1 YSD     -0.597800
      7 CAS         3.3690    0.1970    1.3070 c3        1 YSD     -0.066400
      8 CAP         4.1340   -1.0340    0.8670 c3        1 YSD     -0.080400
      9 CAY         5.6400   -0.7720    0.8230 c3        1 YSD     -0.054700
     10 CAD         6.2140   -0.9190    2.2200 c3        1 YSD     -0.092100
     11 CBC         6.3120   -1.7180   -0.1670 c3        1 YSD     -0.053700
     12 CAQ         5.7540   -1.5520   -1.5960 c3        1 YSD     -0.078400
     13 CAO         6.9160   -1.7250   -2.5760 c3        1 YSD     -0.073400
     14 CBB         8.0580   -2.2530   -1.7210 c3        1 YSD     -0.036500
     15 CBE         7.8410   -1.5650   -0.3430 c3        1 YSD     -0.040000
     16 CAE         8.2360   -0.1000   -0.3960 c3        1 YSD     -0.083100
     17 CAR         8.6980   -2.3180    0.6630 c3        1 YSD     -0.067400
     18 CAM        10.1610   -2.2870    0.2550 c3        1 YSD     -0.072400
     19 CAN        10.4210   -2.7210   -1.1770 c3        1 YSD     -0.044200
     20 CAX         9.4690   -2.1310   -2.1680 c2        1 YSD     -0.079400
     21 CAJ         9.8300   -1.6090   -3.3520 ce        1 YSD     -0.147000
     22 CAI        11.1870   -1.5390   -3.8500 ce        1 YSD     -0.121000
     23 CAW        11.6710   -0.5890   -4.6700 c2        1 YSD     -0.106400
     24 CAU        10.8860    0.5800   -5.1480 c3        1 YSD     -0.034200
     25 CAT        13.0950   -0.6300   -5.1130 c3        1 YSD     -0.034200
     26 CAZ        13.2890   -0.3400   -6.6030 c3        1 YSD      0.183300
     27 OAF        12.9390   -1.5270   -7.3080 oh        1 YSD     -0.594300
     28 CAV        12.4670    0.8370   -7.0490 c2        1 YSD     -0.193400
     29 CAA        12.9990    1.8710   -7.7010 c2        1 YSD     -0.198000
     30 CBA        11.0200    0.7330   -6.6660 c3        1 YSD      0.183300
     31 OAG        10.2610    1.8810   -7.0200 oh        1 YSD     -0.594300
     32 H1         -0.6500   -1.6710   -0.1940 hc        1 YSD      0.035867
     33 H2         -0.5610   -1.3710    1.5880 hc        1 YSD      0.035867
     34 H3         -0.7650    0.0180    0.4420 hc        1 YSD      0.035867
     35 H4          1.6790   -1.8760    0.4350 hc        1 YSD      0.047700
     36 H5          1.4900   -0.3250   -0.4860 hc        1 YSD      0.047700
     37 H6          1.0830    1.8040    0.9480 hc        1 YSD      0.047700
     38 H7          0.1040    0.9790    2.2290 hc        1 YSD      0.047700
     39 H8          2.7430    2.5340    2.5930 hc        1 YSD      0.035867
     40 H9          2.0610    1.4310    3.8580 hc        1 YSD      0.035867
     41 H10         1.1140    2.8770    3.3010 hc        1 YSD      0.035867
     42 H11         0.9880   -1.0680    3.0380 ho        1 YSD      0.397000
     43 H12         3.4060    0.9790    0.5050 hc        1 YSD      0.049200
     44 H13         3.8480    0.6220    2.2290 hc        1 YSD      0.049200
     45 H14         3.9190   -1.8770    1.5760 hc        1 YSD      0.049200
     46 H15         3.7680   -1.3490   -0.1450 hc        1 YSD      0.049200
     47 H16         5.8070    0.2860    0.4750 hc        1 YSD      0.048700
     48 H17         7.2120   -0.4250    2.2920 hc        1 YSD      0.035367
     49 H18         5.5380   -0.4440    2.9710 hc        1 YSD      0.035367
     50 H19         6.3290   -1.9980    2.4860 hc        1 YSD      0.035367
     51 H20         6.1120   -2.7700    0.1780 hc        1 YSD      0.047700
     52 H21         5.2920   -0.5410   -1.7220 hc        1 YSD      0.041200
     53 H22         4.9620   -2.3170   -1.7890 hc        1 YSD      0.041200
     54 H23         7.1820   -0.7430   -3.0420 hc        1 YSD      0.044700
     55 H24         6.6580   -2.4360   -3.3970 hc        1 YSD      0.044700
     56 H25         7.8730   -3.3610   -1.5750 hc        1 YSD      0.055700
     57 H26         8.2310    0.3440    0.6280 hc        1 YSD      0.037367
     58 H27         7.5210    0.4720   -1.0360 hc        1 YSD      0.037367
     59 H28         9.2590    0.0150   -0.8290 hc        1 YSD      0.037367
     60 H29         8.3460   -3.3810    0.7310 hc        1 YSD      0.042700
     61 H30         8.5940   -1.8650    1.6820 hc        1 YSD      0.042700
     62 H31        10.7430   -2.9570    0.9420 hc        1 YSD      0.040200
     63 H32        10.5550   -1.2450    0.3980 hc        1 YSD      0.040200
     64 H33        11.4790   -2.4570   -1.4390 hc        1 YSD      0.046700
     65 H34        10.3300   -3.8410   -1.2440 hc        1 YSD      0.046700
     66 H35         9.0490   -1.2150   -4.0270 ha        1 YSD      0.128000
     67 H36        11.8550   -2.3590   -3.5270 ha        1 YSD      0.124000
     68 H37        11.2620    1.5140   -4.6500 hc        1 YSD      0.062950
     69 H38         9.7970    0.4850   -4.8960 hc        1 YSD      0.062950
     70 H39        13.6710    0.1430   -4.5370 hc        1 YSD      0.062950
     71 H40        13.5460   -1.6350   -4.8950 hc        1 YSD      0.062950
     72 H41        14.3840   -0.1320   -6.7900 h1        1 YSD      0.044700
     73 H42        12.9460   -1.3070   -8.2470 ho        1 YSD      0.400000
     74 H44        14.0630    1.9170   -7.9680 ha        1 YSD      0.119500
     75 H45        12.4050    2.7480   -7.9940 ha        1 YSD      0.119500
     76 H47        10.5860   -0.1760   -7.1770 h1        1 YSD      0.044700
     77 H48        10.2850    1.9440   -7.9820 ho        1 YSD      0.400000
@<TRIPOS>BOND
     1    1    2 1   
     2    1   32 1   
     3    1   33 1   
     4    1   34 1   
     5    2    3 1   
     6    2   35 1   
     7    2   36 1   
     8    3    4 1   
     9    3    6 1   
    10    3    7 1   
    11    4    5 1   
    12    4   37 1   
    13    4   38 1   
    14    5   39 1   
    15    5   40 1   
    16    5   41 1   
    17    6   42 1   
    18    7    8 1   
    19    7   43 1   
    20    7   44 1   
    21    8    9 1   
    22    8   45 1   
    23    8   46 1   
    24    9   10 1   
    25    9   11 1   
    26    9   47 1   
    27   10   48 1   
    28   10   49 1   
    29   10   50 1   
    30   11   12 1   
    31   11   15 1   
    32   11   51 1   
    33   12   13 1   
    34   12   52 1   
    35   12   53 1   
    36   13   14 1   
    37   13   54 1   
    38   13   55 1   
    39   14   15 1   
    40   14   20 1   
    41   14   56 1   
    42   15   16 1   
    43   15   17 1   
    44   16   57 1   
    45   16   58 1   
    46   16   59 1   
    47   17   18 1   
    48   17   60 1   
    49   17   61 1   
    50   18   19 1   
    51   18   62 1   
    52   18   63 1   
    53   19   20 1   
    54   19   64 1   
    55   19   65 1   
    56   20   21 2   
    57   21   22 1   
    58   21   66 1   
    59   22   23 2   
    60   22   67 1   
    61   23   24 1   
    62   23   25 1   
    63   24   30 1   
    64   24   68 1   
    65   24   69 1   
    66   25   26 1   
    67   25   70 1   
    68   25   71 1   
    69   26   27 1   
    70   26   28 1   
    71   26   72 1   
    72   27   73 1   
    73   28   29 2   
    74   28   30 1   
    75   29   74 1   
    76   29   75 1   
    77   30   31 1   
    78   30   76 1   
    79   31   77 1   
@<TRIPOS>SUBSTRUCTURE
     1 YSD         1 TEMP              0 ****  ****    0 ROOT
