@<TRIPOS>MOLECULE
molecule
   77    79     1     0     0
SMALL
bcc


@<TRIPOS>ATOM
      1 CAB          0.0000     0.0000     0.0000 c3         1 YSD      -0.096100
      2 CAK          1.5310     0.0000     0.0000 c3         1 YSD      -0.111400
      3 CBD          2.0400     0.0000     1.4430 c3         1 YSD       0.152800
      4 CAL          1.4300     1.1810     2.2000 c3         1 YSD      -0.111400
      5 CAC          1.9490     1.1890     3.6380 c3         1 YSD      -0.096100
      6 OAH          1.6620    -1.2210     2.0820 oh         1 YSD      -0.601800
      7 CAS          3.5650     0.1250     1.4450 c3         1 YSD      -0.069400
      8 CAP          4.1760    -1.0570     0.6910 c3         1 YSD      -0.079400
      9 CAY          5.6900    -0.8700     0.5890 c3         1 YSD      -0.071700
     10 CAD          6.3060    -0.9210     1.9880 c3         1 YSD      -0.096100
     11 CBC          6.2860    -1.9860    -0.2710 c3         1 YSD      -0.053700
     12 CAQ          5.7580    -1.8850    -1.7270 c3         1 YSD      -0.080400
     13 CAO          7.0110    -1.7620    -2.6390 c3         1 YSD      -0.078400
     14 CBB          8.1100    -2.4060    -1.7910 c3         1 YSD      -0.034500
     15 CBE          7.7930    -1.8180    -0.3860 c3         1 YSD      -0.060000
     16 CAE          8.1370    -0.3280    -0.3740 c3         1 YSD      -0.092100
     17 CAR          8.6710    -2.5290     0.6160 c3         1 YSD      -0.066400
     18 CAM         10.1240    -2.1040     0.3430 c3         1 YSD      -0.079400
     19 CAN         10.5610    -2.4540    -1.0780 c3         1 YSD      -0.043200
     20 CAX          9.5210    -1.9920    -2.0890 c2         1 YSD      -0.094400
     21 CAJ          9.8400    -1.2740    -3.1610 ce         1 YSD      -0.153000
     22 CAI         11.2410    -0.8970    -3.4030 ce         1 YSD      -0.133000
     23 CAW         11.5480    -0.0910    -4.4140 c2         1 YSD      -0.110400
     24 CAU         10.4580     0.5620    -5.2340 c3         1 YSD      -0.054200
     25 CAT         12.9910     0.1930    -4.7610 c3         1 YSD      -0.054200
     26 CAZ         13.2180    -0.1590    -6.2370 c3         1 YSD       0.194300
     27 OAF         13.1670    -1.5780    -6.4040 oh         1 YSD      -0.603800
     28 CAV         12.1290     0.4900    -7.0600 c2         1 YSD      -0.144400
     29 CAA         12.4310     1.2830    -8.0570 c2         1 YSD      -0.191000
     30 CBA         10.6800     0.2100    -6.7100 c3         1 YSD       0.194300
     31 OAG          9.8240     1.0110    -7.5280 oh         1 YSD      -0.603800
     32 H1          -0.3610     0.9900     0.2530 hc         1 YSD       0.036033
     33 H2          -0.3610    -0.2760    -0.9830 hc         1 YSD       0.036033
     34 H3          -0.3610    -0.7140     0.7300 hc         1 YSD       0.036033
     35 H4           1.8920    -0.8850    -0.5110 hc         1 YSD       0.049700
     36 H5           1.8920     0.8850    -0.5110 hc         1 YSD       0.049700
     37 H6           0.3500     1.0870     2.2060 hc         1 YSD       0.049700
     38 H7           1.7080     2.1070     1.7110 hc         1 YSD       0.049700
     39 H8           2.9090     1.6900     3.6730 hc         1 YSD       0.036033
     40 H9           2.0620     0.1690     3.9870 hc         1 YSD       0.036033
     41 H10          1.2450     1.7120     4.2740 hc         1 YSD       0.036033
     42 H11          0.7810    -1.1450     2.4090 ho         1 YSD       0.402000
     43 H12          3.8510     1.0500     0.9590 hc         1 YSD       0.050200
     44 H13          3.9250     0.1270     2.4660 hc         1 YSD       0.050200
     45 H14          3.7500    -1.1100    -0.3040 hc         1 YSD       0.052200
     46 H15          3.9610    -1.9750     1.2240 hc         1 YSD       0.052200
     47 H16          5.9050     0.0900     0.1340 hc         1 YSD       0.054700
     48 H17          5.5720    -0.6010     2.7180 hc         1 YSD       0.036700
     49 H18          7.1660    -0.2630     2.0290 hc         1 YSD       0.036700
     50 H19          6.6170    -1.9350     2.2100 hc         1 YSD       0.036700
     51 H20          6.0480    -2.9570     0.1460 hc         1 YSD       0.055700
     52 H21          5.2000    -2.7780    -1.9820 hc         1 YSD       0.043700
     53 H22          5.1340    -1.0060    -1.8350 hc         1 YSD       0.043700
     54 H23          6.8680    -2.3120    -3.5610 hc         1 YSD       0.046200
     55 H24          7.2400    -0.7210    -2.8360 hc         1 YSD       0.046200
     56 H25          8.0150    -3.4850    -1.7860 hc         1 YSD       0.066700
     57 H26          8.1980     0.0210     0.6500 hc         1 YSD       0.040033
     58 H27          9.0900    -0.1730    -0.8660 hc         1 YSD       0.040033
     59 H28          7.3670     0.2250    -0.8990 hc         1 YSD       0.040033
     60 H29          8.5740    -3.6010     0.4930 hc         1 YSD       0.045700
     61 H30          8.3880    -2.2420     1.6210 hc         1 YSD       0.045700
     62 H31         10.7760    -2.6100     1.0450 hc         1 YSD       0.042200
     63 H32         10.2090    -1.0330     0.4840 hc         1 YSD       0.042200
     64 H33         11.5040    -1.9660    -1.2900 hc         1 YSD       0.049700
     65 H34         10.6820    -3.5270    -1.1580 hc         1 YSD       0.049700
     66 H35          9.0800    -1.0260    -3.8920 ha         1 YSD       0.134000
     67 H36         12.0310    -1.3590    -2.8220 ha         1 YSD       0.131000
     68 H37          9.4920     0.1920    -4.9130 hc         1 YSD       0.057450
     69 H38         10.5030     1.6370    -5.1060 hc         1 YSD       0.057450
     70 H39         13.2020     1.2440    -4.6020 hc         1 YSD       0.057450
     71 H40         13.6400    -0.4120    -4.1400 hc         1 YSD       0.057450
     72 H41         14.1840     0.2150    -6.5540 h1         1 YSD       0.046700
     73 H42         14.0180    -1.8950    -6.6580 ho         1 YSD       0.401000
     74 H44         13.4690     1.4780    -8.2990 ha         1 YSD       0.122000
     75 H45         11.6430     1.7430    -8.6410 ha         1 YSD       0.122000
     76 H47         10.4650    -0.8400    -6.8690 h1         1 YSD       0.046700
     77 H48          9.0720     0.5040    -7.7880 ho         1 YSD       0.401000
@<TRIPOS>BOND
     1    10     9 1
     2     2     1 1
     3     2     3 1
     4     6     3 1
     5     7     3 1
     6     7     8 1
     7     9     8 1
     8     9    11 1
     9     3     4 1
    10    17    18 1
    11    17    15 1
    12    11    15 1
    13    11    12 1
    14    18    19 1
    15    15    14 1
    16    15    16 1
    17     4     5 1
    18    12    13 1
    19    19    20 1
    20    14    13 1
    21    14    20 1
    22    20    21 2
    23    21    22 1
    24    22    23 2
    25    23    25 1
    26    23    24 1
    27    25    26 1
    28    24    30 1
    29    27    26 1
    30    26    28 1
    31    30    28 1
    32    30    31 1
    33    28    29 2
    34     1    32 1
    35     1    33 1
    36     1    34 1
    37     2    35 1
    38     2    36 1
    39     4    37 1
    40     4    38 1
    41     5    39 1
    42     5    40 1
    43     5    41 1
    44     6    42 1
    45     7    43 1
    46     7    44 1
    47     8    45 1
    48     8    46 1
    49     9    47 1
    50    10    48 1
    51    10    49 1
    52    10    50 1
    53    11    51 1
    54    12    52 1
    55    12    53 1
    56    13    54 1
    57    13    55 1
    58    14    56 1
    59    16    57 1
    60    16    58 1
    61    16    59 1
    62    17    60 1
    63    17    61 1
    64    18    62 1
    65    18    63 1
    66    19    64 1
    67    19    65 1
    68    21    66 1
    69    22    67 1
    70    24    68 1
    71    24    69 1
    72    25    70 1
    73    25    71 1
    74    26    72 1
    75    27    73 1
    76    29    74 1
    77    29    75 1
    78    30    76 1
    79    31    77 1
@<TRIPOS>SUBSTRUCTURE
     1 YSD         1 TEMP              0 ****  ****    0 ROOT
