@<TRIPOS>MOLECULE
molecule
   71    73     1     0     0
SMALL
bcc


@<TRIPOS>ATOM
      1 O2           0.0000     0.0000     0.0000 oh         1 YSE      -0.612800
      2 C23          1.4290     0.0000     0.0000 c3         1 YSE       0.138400
      3 C22          1.9390     0.0000     1.4420 c3         1 YSE      -0.081400
      4 C21          3.4640    -0.1320     1.4440 c3         1 YSE      -0.070700
      5 C24          3.9630    -0.2610     2.8840 c3         1 YSE      -0.081400
      6 C25          3.4710    -1.5810     3.4800 c3         1 YSE      -0.094100
      7 C19          4.0840     1.1080     0.7980 c3         1 YSE      -0.071700
      8 C20          3.7270     2.3460     1.6230 c3         1 YSE      -0.094100
      9 C17          5.6050     0.9500     0.7460 c3         1 YSE      -0.055700
     10 C16          5.9860    -0.3390    -0.0270 c3         1 YSE      -0.081400
     11 C15          6.9110     0.1100    -1.1950 c3         1 YSE      -0.078400
     12 C10          7.4880     1.4300    -0.6790 c3         1 YSE      -0.034500
     13 C11          6.2280     2.0880    -0.0470 c3         1 YSE      -0.061000
     14 C18          5.2670     2.5100    -1.1610 c3         1 YSE      -0.090100
     15 C12          6.6820     3.3210     0.7000 c3         1 YSE      -0.065400
     16 C13          7.1630     4.3430    -0.3440 c3         1 YSE      -0.079400
     17 C14          8.3080     3.7920    -1.1920 c3         1 YSE      -0.043200
     18 C8           7.9720     2.4030    -1.7140 c2         1 YSE      -0.096400
     19 C7           8.0970     2.0750    -2.9950 ce         1 YSE      -0.151000
     20 C6           8.5760     3.0710    -3.9660 ce         1 YSE      -0.134000
     21 C5           8.6010     2.7770    -5.2620 c2         1 YSE      -0.109400
     22 C            9.2170     3.7350    -6.2570 c3         1 YSE      -0.053700
     23 C4           8.0180     1.4780    -5.7670 c3         1 YSE      -0.053700
     24 C3           9.0970     0.7350    -6.5660 c3         1 YSE       0.194300
     25 O            8.5090    -0.3680    -7.2580 oh         1 YSE      -0.603800
     26 C2           9.7080     1.6950    -7.5600 c2         1 YSE      -0.146400
     27 C9           9.7340     1.4080    -8.8380 c2         1 YSE      -0.190000
     28 C1          10.2940     2.9880    -7.0530 c3         1 YSE       0.194300
     29 O1          11.4140     2.7090    -6.2110 oh         1 YSE      -0.603800
     30 H1          -0.3140    -0.1480    -0.8760 ho         1 YSE       0.400000
     31 H2           1.7900    -0.8840    -0.5110 h1         1 YSE       0.019700
     32 H3           1.7900     0.8840    -0.5110 h1         1 YSE       0.019700
     33 H4           1.6570     0.9280     1.9250 hc         1 YSE       0.057200
     34 H5           1.5040    -0.8340     1.9790 hc         1 YSE       0.057200
     35 H6           3.7500    -1.0140     0.8830 hc         1 YSE       0.052700
     36 H7           5.0460    -0.2410     2.8940 hc         1 YSE       0.044700
     37 H8           3.5820     0.5650     3.4730 hc         1 YSE       0.044700
     38 H9           3.5210    -2.3580     2.7260 hc         1 YSE       0.033700
     39 H10          4.0970    -1.8530     4.3210 hc         1 YSE       0.033700
     40 H11          2.4470    -1.4670     3.8140 hc         1 YSE       0.033700
     41 H12          3.6990     1.2210    -0.2080 hc         1 YSE       0.060700
     42 H13          3.4280     3.1480     0.9590 hc         1 YSE       0.037700
     43 H14          4.5900     2.6570     2.1990 hc         1 YSE       0.037700
     44 H15          2.9100     2.1100     2.2940 hc         1 YSE       0.037700
     45 H16          6.0190     0.9210     1.7470 hc         1 YSE       0.056700
     46 H17          5.0950    -0.8130    -0.4210 hc         1 YSE       0.044700
     47 H18          6.5190    -1.0200     0.6260 hc         1 YSE       0.044700
     48 H19          6.3350     0.2700    -2.0980 hc         1 YSE       0.046700
     49 H20          7.7000    -0.6150    -1.3570 hc         1 YSE       0.046700
     50 H21          8.2470     1.2540     0.0730 hc         1 YSE       0.066700
     51 H22          4.5770     3.2530    -0.7800 hc         1 YSE       0.039700
     52 H23          4.7130     1.6460    -1.5070 hc         1 YSE       0.039700
     53 H24          5.8320     2.9310    -1.9840 hc         1 YSE       0.039700
     54 H25          5.8550     3.7350     1.2630 hc         1 YSE       0.045200
     55 H26          7.4970     3.0670     1.3660 hc         1 YSE       0.045200
     56 H27          6.3350     4.5980    -0.9950 hc         1 YSE       0.043200
     57 H28          7.5040     5.2350     0.1680 hc         1 YSE       0.043200
     58 H29          8.4790     4.4550    -2.0320 hc         1 YSE       0.050200
     59 H30          9.2040     3.7370    -0.5870 hc         1 YSE       0.050200
     60 H31          7.8850     1.0630    -3.3180 ha         1 YSE       0.134000
     61 H32          9.0010     4.0040    -3.6160 ha         1 YSE       0.131000
     62 H33          8.4530     4.0980    -6.9330 hc         1 YSE       0.057700
     63 H34          9.6680     4.5660    -5.7280 hc         1 YSE       0.057700
     64 H35          7.7050     0.8700    -4.9270 hc         1 YSE       0.057700
     65 H36          7.1700     1.6850    -6.4090 hc         1 YSE       0.057700
     66 H37          9.8650     0.3780    -5.8900 h1         1 YSE       0.046700
     67 H38          8.6940    -1.1670    -6.7920 ho         1 YSE       0.401500
     68 H39         10.1770     2.1040    -9.5400 ha         1 YSE       0.122000
     69 H40          9.3140     0.4750    -9.1930 ha         1 YSE       0.122000
     70 H41         10.6080     3.5950    -7.8930 h1         1 YSE       0.046700
     71 H42         12.1660     3.1870    -6.5200 ho         1 YSE       0.401500
@<TRIPOS>BOND
     1    27    26 2
     2    26    28 1
     3    26    24 1
     4    25    24 1
     5    28    29 1
     6    28    22 1
     7    24    23 1
     8    22    21 1
     9    23    21 1
    10    21    20 2
    11    20    19 1
    12    19    18 2
    13    18    17 1
    14    18    12 1
    15    11    12 1
    16    11    10 1
    17    14    13 1
    18    17    16 1
    19    12    13 1
    20    10     9 1
    21    13     9 1
    22    13    15 1
    23    16    15 1
    24     9     7 1
    25     2     1 1
    26     2     3 1
    27     7     4 1
    28     7     8 1
    29     4     3 1
    30     4     5 1
    31     5     6 1
    32     1    30 1
    33     2    31 1
    34     2    32 1
    35     3    33 1
    36     3    34 1
    37     4    35 1
    38     5    36 1
    39     5    37 1
    40     6    38 1
    41     6    39 1
    42     6    40 1
    43     7    41 1
    44     8    42 1
    45     8    43 1
    46     8    44 1
    47     9    45 1
    48    10    46 1
    49    10    47 1
    50    11    48 1
    51    11    49 1
    52    12    50 1
    53    14    51 1
    54    14    52 1
    55    14    53 1
    56    15    54 1
    57    15    55 1
    58    16    56 1
    59    16    57 1
    60    17    58 1
    61    17    59 1
    62    19    60 1
    63    20    61 1
    64    22    62 1
    65    22    63 1
    66    23    64 1
    67    23    65 1
    68    24    66 1
    69    25    67 1
    70    27    68 1
    71    27    69 1
    72    28    70 1
    73    29    71 1
@<TRIPOS>SUBSTRUCTURE
     1 YSE         1 TEMP              0 ****  ****    0 ROOT
