@<TRIPOS>MOLECULE
YSE
   71    73     1     0     0
SMALL
bcc


@<TRIPOS>ATOM
      1 O2          0.2040   -1.0260    0.0280 oh        1 YSE     -0.601800
      2 C23         1.6110   -0.9920    0.2120 c3        1 YSE      0.131400
      3 C22         1.8720   -0.2050    1.4860 c3        1 YSE     -0.083400
      4 C21         3.3640   -0.0030    1.7160 c3        1 YSE     -0.062700
      5 C24         3.6610    0.1500    3.2030 c3        1 YSE     -0.076400
      6 C25         3.6600   -1.1710    3.9290 c3        1 YSE     -0.094100
      7 C19         3.8780    1.1970    0.9030 c3        1 YSE     -0.052700
      8 C20         3.5450    2.5000    1.6030 c3        1 YSE     -0.090100
      9 C17         5.3720    1.0670    0.6220 c3        1 YSE     -0.054700
     10 C16         5.7070   -0.2300   -0.1430 c3        1 YSE     -0.078400
     11 C15         6.8420    0.0820   -1.1210 c3        1 YSE     -0.073400
     12 C10         7.3130    1.4730   -0.7240 c3        1 YSE     -0.037500
     13 C11         6.0170    2.1810   -0.2360 c3        1 YSE     -0.040000
     14 C18         5.1230    2.5500   -1.4080 c3        1 YSE     -0.083100
     15 C12         6.4550    3.4260    0.5200 c3        1 YSE     -0.067400
     16 C13         7.2780    4.3380   -0.3730 c3        1 YSE     -0.072400
     17 C14         8.4330    3.6460   -1.0790 c3        1 YSE     -0.045200
     18 C8          8.0670    2.3260   -1.6790 c2        1 YSE     -0.078400
     19 C7          8.4280    1.9250   -2.9090 ce        1 YSE     -0.147000
     20 C6          9.2250    2.7000   -3.8350 ce        1 YSE     -0.129000
     21 C5          9.1290    2.6550   -5.1760 c2        1 YSE     -0.099400
     22 C          10.0150    3.4980   -6.0300 c3        1 YSE     -0.074700
     23 C4          8.1330    1.8420   -5.9200 c3        1 YSE     -0.074700
     24 C3          8.7870    1.0420   -7.0520 c3        1 YSE      0.183800
     25 O           7.7840    0.4100   -7.8420 oh        1 YSE     -0.596300
     26 C2          9.6100    1.9320   -7.9330 c2        1 YSE     -0.121400
     27 C9          9.4590    2.0260   -9.2540 c2        1 YSE     -0.175000
     28 C1         10.6500    2.7160   -7.1830 c3        1 YSE      0.183800
     29 O1         11.6350    1.7910   -6.7300 oh        1 YSE     -0.596300
     30 H1          0.0450   -1.5310   -0.7780 ho        1 YSE      0.398000
     31 H2          2.0100   -2.0380    0.3040 h1        1 YSE      0.019200
     32 H3          2.1000   -0.4980   -0.6710 h1        1 YSE      0.019200
     33 H4          1.3450    0.7820    1.4230 hc        1 YSE      0.057200
     34 H5          1.4210   -0.7630    2.3480 hc        1 YSE      0.057200
     35 H6          3.8970   -0.9300    1.3570 hc        1 YSE      0.048700
     36 H7          4.6670    0.6330    3.3300 hc        1 YSE      0.041700
     37 H8          2.9040    0.8360    3.6670 hc        1 YSE      0.041700
     38 H9          3.8750   -1.0120    5.0140 hc        1 YSE      0.033033
     39 H10         2.6700   -1.6800    3.8390 hc        1 YSE      0.033033
     40 H11         4.4410   -1.8520    3.5130 hc        1 YSE      0.033033
     41 H12         3.3380    1.1870   -0.0880 hc        1 YSE      0.050700
     42 H13         4.2700    2.7090    2.4260 hc        1 YSE      0.035700
     43 H14         3.5730    3.3520    0.8810 hc        1 YSE      0.035700
     44 H15         2.5180    2.4570    2.0410 hc        1 YSE      0.035700
     45 H16         5.9100    1.0500    1.6110 hc        1 YSE      0.048700
     46 H17         6.0160   -1.0300    0.5740 hc        1 YSE      0.041200
     47 H18         4.8100   -0.5980   -0.7020 hc        1 YSE      0.041200
     48 H19         7.6680   -0.6650   -1.0430 hc        1 YSE      0.043700
     49 H20         6.4640    0.0690   -2.1730 hc        1 YSE      0.043700
     50 H21         7.9860    1.3470    0.1780 hc        1 YSE      0.056700
     51 H22         4.6980    1.6290   -1.8770 hc        1 YSE      0.037700
     52 H23         4.2810    3.2000   -1.0700 hc        1 YSE      0.037700
     53 H24         5.7050    3.0990   -2.1870 hc        1 YSE      0.037700
     54 H25         5.5620    3.9920    0.8920 hc        1 YSE      0.043200
     55 H26         7.0590    3.1250    1.4150 hc        1 YSE      0.043200
     56 H27         6.6040    4.7980   -1.1440 hc        1 YSE      0.041200
     57 H28         7.6920    5.1760    0.2470 hc        1 YSE      0.041200
     58 H29         8.8330    4.3400   -1.8640 hc        1 YSE      0.047200
     59 H30         9.2610    3.4660   -0.3380 hc        1 YSE      0.047200
     60 H31         8.1280    0.9200   -3.2580 ha        1 YSE      0.126000
     61 H32         9.9780    3.3650   -3.3720 ha        1 YSE      0.121000
     62 H33         9.3990    4.3300   -6.4700 hc        1 YSE      0.055700
     63 H34        10.8290    3.9670   -5.4170 hc        1 YSE      0.055700
     64 H35         7.5960    1.1290   -5.2400 hc        1 YSE      0.055700
     65 H36         7.3580    2.5260   -6.3620 hc        1 YSE      0.055700
     66 H37         9.4710    0.2560   -6.6140 h1        1 YSE      0.050200
     67 H38         7.3200   -0.1970   -7.2530 ho        1 YSE      0.400000
     68 H39        10.0970    2.6680   -9.8750 ha        1 YSE      0.123500
     69 H40         8.6850    1.4590   -9.7900 ha        1 YSE      0.123500
     70 H41        11.1560    3.4510   -7.8770 h1        1 YSE      0.050200
     71 H42        12.1650    2.2480   -6.0670 ho        1 YSE      0.400000
@<TRIPOS>BOND
     1    1    2 1   
     2    1   30 1   
     3    2    3 1   
     4    2   31 1   
     5    2   32 1   
     6    3    4 1   
     7    3   33 1   
     8    3   34 1   
     9    4    5 1   
    10    4    7 1   
    11    4   35 1   
    12    5    6 1   
    13    5   36 1   
    14    5   37 1   
    15    6   38 1   
    16    6   39 1   
    17    6   40 1   
    18    7    8 1   
    19    7    9 1   
    20    7   41 1   
    21    8   42 1   
    22    8   43 1   
    23    8   44 1   
    24    9   10 1   
    25    9   13 1   
    26    9   45 1   
    27   10   11 1   
    28   10   46 1   
    29   10   47 1   
    30   11   12 1   
    31   11   48 1   
    32   11   49 1   
    33   12   13 1   
    34   12   18 1   
    35   12   50 1   
    36   13   14 1   
    37   13   15 1   
    38   14   51 1   
    39   14   52 1   
    40   14   53 1   
    41   15   16 1   
    42   15   54 1   
    43   15   55 1   
    44   16   17 1   
    45   16   56 1   
    46   16   57 1   
    47   17   18 1   
    48   17   58 1   
    49   17   59 1   
    50   18   19 2   
    51   19   20 1   
    52   19   60 1   
    53   20   21 2   
    54   20   61 1   
    55   21   22 1   
    56   21   23 1   
    57   22   28 1   
    58   22   62 1   
    59   22   63 1   
    60   23   24 1   
    61   23   64 1   
    62   23   65 1   
    63   24   25 1   
    64   24   26 1   
    65   24   66 1   
    66   25   67 1   
    67   26   27 2   
    68   26   28 1   
    69   27   68 1   
    70   27   69 1   
    71   28   29 1   
    72   28   70 1   
    73   29   71 1   
@<TRIPOS>SUBSTRUCTURE
     1 YSE         1 TEMP              0 ****  ****    0 ROOT
