@<TRIPOS>MOLECULE
molecule
   38    39     1     0     0
SMALL
bcc


@<TRIPOS>ATOM
      1 C1           0.0000     0.0000     0.0000 cc         1 YSH      -0.134300
      2 N2           1.3440     0.0000     0.0000 na         1 YSH       0.117300
      3 N3           1.7870     0.0000     1.3280 nc         1 YSH      -0.547800
      4 C4           0.7500     0.0090     2.1200 cd         1 YSH       0.359200
      5 C5          -0.4140     0.0050     1.3180 cd         1 YSH      -0.300900
      6 C6           2.1650    -0.0040    -1.1370 ca         1 YSH       0.054800
      7 C7           3.3150    -0.7740    -1.1560 ca         1 YSH      -0.060000
      8 C8           4.1270    -0.7810    -2.2910 ca         1 YSH      -0.071000
      9 C9           3.7780     0.0020    -3.3990 ca         1 YSH       0.111100
     10 C10          2.6230     0.7680    -3.3660 ca         1 YSH      -0.228000
     11 C11          1.8220     0.7660    -2.2430 ca         1 YSH      -0.082000
     12 C12          5.3170    -1.5760    -2.3180 cg         1 YSH       0.266800
     13 N13          6.2700    -2.1950    -2.3250 n1         1 YSH      -0.392800
     14 O14          4.5650     0.0060    -4.5050 os         1 YSH      -0.311900
     15 C15          3.9480     0.8830    -5.4490 c3         1 YSH       0.096400
     16 C16          4.7900     0.9330    -6.7250 c3         1 YSH      -0.099000
     17 C17          4.1290     1.8720    -7.7350 c3         1 YSH      -0.106767
     18 C18          4.8910    -0.4700    -7.3250 c3         1 YSH      -0.106767
     19 C19          6.1910     1.4470    -6.3920 c3         1 YSH      -0.106767
     20 C20         -1.8060     0.0080     1.7980 c          1 YSH       0.910200
     21 O21         -2.0630     0.0130     3.1210 o          1 YSH      -0.841300
     22 O22         -2.7230     0.0060     1.0010 o          1 YSH      -0.841300
     23 H1          -0.6860     0.1430    -0.8260 h4         1 YSH       0.182000
     24 H4           0.6130     0.1680     3.1830 h4         1 YSH       0.079100
     25 H7           3.5790    -1.7130    -0.6840 ha         1 YSH       0.163000
     26 H10          2.6690     1.4550    -4.2030 ha         1 YSH       0.156000
     27 H11          0.7650     0.9440    -2.4000 ha         1 YSH       0.153000
     28 H151         2.9320     0.5210    -5.5540 h1         1 YSH       0.072700
     29 H152         4.3160     1.8480    -5.1220 h1         1 YSH       0.072700
     30 H171         4.8140     2.1770    -8.5170 hc         1 YSH       0.048256
     31 H172         3.6670     1.0490    -8.2670 hc         1 YSH       0.048256
     32 H173         3.5420     2.7400    -7.4590 hc         1 YSH       0.048256
     33 H181         5.3430    -0.1190    -8.2450 hc         1 YSH       0.048256
     34 H182         5.7540    -0.7530    -6.7340 hc         1 YSH       0.048256
     35 H183         4.0420    -0.9550    -7.7900 hc         1 YSH       0.048256
     36 H191         6.3140     2.5150    -6.5250 hc         1 YSH       0.048256
     37 H192         6.5700     1.0060    -7.3060 hc         1 YSH       0.048256
     38 H193         6.4720     0.8550    -5.5290 hc         1 YSH       0.048256
@<TRIPOS>BOND
     1     1     2 1
     2     1     5 2
     3     1    23 1
     4     2     3 1
     5     2     6 1
     6     3     4 2
     7     4     5 1
     8     4    24 1
     9     5    20 1
    10     6     7 ar
    11     6    11 ar
    12     7     8 ar
    13     7    25 1
    14     8     9 ar
    15     8    12 1
    16     9    10 ar
    17     9    14 1
    18    10    11 ar
    19    10    26 1
    20    11    27 1
    21    12    13 3
    22    14    15 1
    23    15    16 1
    24    15    28 1
    25    15    29 1
    26    16    17 1
    27    16    18 1
    28    16    19 1
    29    17    30 1
    30    17    31 1
    31    17    32 1
    32    18    33 1
    33    18    34 1
    34    18    35 1
    35    19    36 1
    36    19    37 1
    37    19    38 1
    38    20    21 1
    39    20    22 1
@<TRIPOS>SUBSTRUCTURE
     1 YSH         1 TEMP              0 ****  ****    0 ROOT
