@<TRIPOS>MOLECULE
YSL
   83    85     1     0     0
SMALL
bcc


@<TRIPOS>ATOM
      1 O33        -0.0460   -0.7330   -0.1570 oh        1 YSL     -0.602800
      2 C26         1.3620   -0.8020    0.0030 c3        1 YSL      0.130400
      3 C25         1.6890   -0.1600    1.3410 c3        1 YSL     -0.083400
      4 C20         3.1950   -0.0810    1.5640 c3        1 YSL     -0.062700
      5 C21         3.5180   -0.0850    3.0530 c3        1 YSL     -0.075400
      6 C22         3.4500   -1.4760    3.6490 c3        1 YSL     -0.080400
      7 C23         3.7550   -1.4480    5.1310 c3        1 YSL     -0.079400
      8 C24         3.6970   -2.8370    5.7300 c3        1 YSL     -0.079400
      9 C31         4.0020   -2.8120    7.2130 c3        1 YSL     -0.080400
     10 C32         3.9450   -4.1920    7.8130 c3        1 YSL     -0.092100
     11 C18         3.7810    1.1530    0.8560 c3        1 YSL     -0.052700
     12 C19         3.5430    2.4050    1.6780 c3        1 YSL     -0.090100
     13 C17         5.2590    0.9510    0.5390 c3        1 YSL     -0.054700
     14 C13         5.9680    2.0940   -0.2260 c3        1 YSL     -0.040000
     15 C34         5.0880    2.6260   -1.3430 c3        1 YSL     -0.083100
     16 C12         6.4970    3.2330    0.6330 c3        1 YSL     -0.067400
     17 C11         7.3700    4.1660   -0.1880 c3        1 YSL     -0.072400
     18 C10         8.4670    3.4670   -0.9730 c3        1 YSL     -0.044200
     19 C9          8.0070    2.2350   -1.6840 c2        1 YSL     -0.081400
     20 C14         7.2080    1.3500   -0.7980 c3        1 YSL     -0.036500
     21 C15         6.6400    0.0350   -1.3110 c3        1 YSL     -0.073400
     22 C16         5.4970   -0.2900   -0.3470 c3        1 YSL     -0.078400
     23 C8          8.3250    1.9240   -2.9520 ce        1 YSL     -0.146000
     24 C7          9.1600    2.7270   -3.8190 ce        1 YSL     -0.122000
     25 C6          9.0530    2.8000   -5.1590 c2        1 YSL     -0.105400
     26 C5          9.9780    3.6700   -5.9420 c3        1 YSL     -0.035200
     27 C4         10.5230    3.0100   -7.2100 c3        1 YSL      0.183300
     28 O31        11.5570    2.1170   -6.8040 oh        1 YSL     -0.594300
     29 C3          9.4400    2.2990   -7.9740 c2        1 YSL     -0.194400
     30 C33         9.2170    2.5230   -9.2690 c2        1 YSL     -0.198000
     31 C2          8.6390    1.3520   -7.1300 c3        1 YSL      0.183300
     32 O32         7.5680    0.7390   -7.8340 oh        1 YSL     -0.594300
     33 C1          8.0080    2.0990   -5.9510 c3        1 YSL     -0.035200
     34 H1         -0.2460   -1.1380   -1.0080 ho        1 YSL      0.398000
     35 H2          1.6950   -1.8760   -0.0120 h1        1 YSL      0.019700
     36 H3          1.8700   -0.2580   -0.8390 h1        1 YSL      0.019700
     37 H4          1.2300    0.8620    1.3790 hc        1 YSL      0.057200
     38 H5          1.2090   -0.7650    2.1540 hc        1 YSL      0.057200
     39 H6          3.6580   -1.0030    1.1110 hc        1 YSL      0.049700
     40 H7          4.5510    0.3250    3.2100 hc        1 YSL      0.043200
     41 H8          2.8060    0.5920    3.5950 hc        1 YSL      0.043200
     42 H9          2.4300   -1.9150    3.4850 hc        1 YSL      0.039700
     43 H10         4.1840   -2.1460    3.1280 hc        1 YSL      0.039700
     44 H11         4.7740   -1.0100    5.2980 hc        1 YSL      0.039200
     45 H12         3.0190   -0.7820    5.6550 hc        1 YSL      0.039200
     46 H13         2.6780   -3.2760    5.5640 hc        1 YSL      0.039200
     47 H14         4.4320   -3.5040    5.2070 hc        1 YSL      0.039200
     48 H15         5.0210   -2.3710    7.3770 hc        1 YSL      0.038200
     49 H16         3.2660   -2.1440    7.7340 hc        1 YSL      0.038200
     50 H17         4.6890   -4.8670    7.3230 hc        1 YSL      0.032700
     51 H18         4.1730   -4.1510    8.9060 hc        1 YSL      0.032700
     52 H19         2.9300   -4.6380    7.6820 hc        1 YSL      0.032700
     53 H20         3.2310    1.2710   -0.1230 hc        1 YSL      0.050700
     54 H21         3.6190    3.3160    1.0360 hc        1 YSL      0.035367
     55 H22         2.5220    2.3890    2.1310 hc        1 YSL      0.035367
     56 H23         4.2920    2.4890    2.5020 hc        1 YSL      0.035367
     57 H24         5.8050    0.8070    1.5130 hc        1 YSL      0.048700
     58 H25         4.2950    3.2970   -0.9330 hc        1 YSL      0.037367
     59 H26         5.6970    3.2060   -2.0790 hc        1 YSL      0.037367
     60 H27         4.5970    1.7820   -1.8870 hc        1 YSL      0.037367
     61 H28         5.6480    3.8190    1.0710 hc        1 YSL      0.042200
     62 H29         7.0900    2.8120    1.4870 hc        1 YSL      0.042200
     63 H30         6.7190    4.7390   -0.9010 hc        1 YSL      0.040700
     64 H31         7.8460    4.9150    0.4990 hc        1 YSL      0.040700
     65 H32         8.9040    4.2030   -1.6990 hc        1 YSL      0.047200
     66 H33         9.2890    3.1650   -0.2670 hc        1 YSL      0.047200
     67 H34         7.8810    1.0970    0.0770 hc        1 YSL      0.055700
     68 H35         6.2510    0.1430   -2.3540 hc        1 YSL      0.045200
     69 H36         7.4150   -0.7690   -1.3150 hc        1 YSL      0.045200
     70 H37         5.7590   -1.1710    0.2890 hc        1 YSL      0.040700
     71 H38         4.5720   -0.5450   -0.9220 hc        1 YSL      0.040700
     72 H39         7.9550    0.9770   -3.3840 ha        1 YSL      0.128000
     73 H40         9.9550    3.3060   -3.3130 ha        1 YSL      0.124000
     74 H41         9.4210    4.5960   -6.2510 hc        1 YSL      0.062950
     75 H42        10.8530    3.9820   -5.3110 hc        1 YSL      0.062950
     76 H43        10.9870    3.8090   -7.8620 h1        1 YSL      0.044700
     77 H44        11.8180    1.6180   -7.5860 ho        1 YSL      0.400000
     78 H45         9.8220    3.2240   -9.8590 ha        1 YSL      0.119500
     79 H46         8.4020    2.0310   -9.8180 ha        1 YSL      0.119500
     80 H47         9.3380    0.5530   -6.7400 h1        1 YSL      0.044700
     81 H48         7.9640    0.2130   -8.5380 ho        1 YSL      0.400000
     82 H49         7.4350    1.3620   -5.3310 hc        1 YSL      0.062950
     83 H50         7.2700    2.8480   -6.3440 hc        1 YSL      0.062950
@<TRIPOS>BOND
     1    1    2 1   
     2    1   34 1   
     3    2    3 1   
     4    2   35 1   
     5    2   36 1   
     6    3    4 1   
     7    3   37 1   
     8    3   38 1   
     9    4    5 1   
    10    4   11 1   
    11    4   39 1   
    12    5    6 1   
    13    5   40 1   
    14    5   41 1   
    15    6    7 1   
    16    6   42 1   
    17    6   43 1   
    18    7    8 1   
    19    7   44 1   
    20    7   45 1   
    21    8    9 1   
    22    8   46 1   
    23    8   47 1   
    24    9   10 1   
    25    9   48 1   
    26    9   49 1   
    27   10   50 1   
    28   10   51 1   
    29   10   52 1   
    30   11   12 1   
    31   11   13 1   
    32   11   53 1   
    33   12   54 1   
    34   12   55 1   
    35   12   56 1   
    36   13   14 1   
    37   13   22 1   
    38   13   57 1   
    39   14   15 1   
    40   14   16 1   
    41   14   20 1   
    42   15   58 1   
    43   15   59 1   
    44   15   60 1   
    45   16   17 1   
    46   16   61 1   
    47   16   62 1   
    48   17   18 1   
    49   17   63 1   
    50   17   64 1   
    51   18   19 1   
    52   18   65 1   
    53   18   66 1   
    54   19   20 1   
    55   19   23 2   
    56   20   21 1   
    57   20   67 1   
    58   21   22 1   
    59   21   68 1   
    60   21   69 1   
    61   22   70 1   
    62   22   71 1   
    63   23   24 1   
    64   23   72 1   
    65   24   25 2   
    66   24   73 1   
    67   25   26 1   
    68   25   33 1   
    69   26   27 1   
    70   26   74 1   
    71   26   75 1   
    72   27   28 1   
    73   27   29 1   
    74   27   76 1   
    75   28   77 1   
    76   29   30 2   
    77   29   31 1   
    78   30   78 1   
    79   30   79 1   
    80   31   32 1   
    81   31   33 1   
    82   31   80 1   
    83   32   81 1   
    84   33   82 1   
    85   33   83 1   
@<TRIPOS>SUBSTRUCTURE
     1 YSL         1 TEMP              0 ****  ****    0 ROOT
