@<TRIPOS>MOLECULE
molecule
   83    85     1     0     0
SMALL
bcc


@<TRIPOS>ATOM
      1 O33          0.0000     0.0000     0.0000 oh         1 YSL      -0.612800
      2 C26          1.4290     0.0000     0.0000 c3         1 YSL       0.138400
      3 C25          1.9390     0.0000     1.4430 c3         1 YSL      -0.081400
      4 C20          3.4630    -0.1310     1.4450 c3         1 YSL      -0.070700
      5 C21          3.9620    -0.2610     2.8860 c3         1 YSL      -0.078400
      6 C22          3.4420    -1.5670     3.4900 c3         1 YSL      -0.085400
      7 C23          3.9400    -1.6960     4.9310 c3         1 YSL      -0.082400
      8 C24          3.4200    -3.0020     5.5350 c3         1 YSL      -0.081400
      9 C31          3.9190    -3.1310     6.9760 c3         1 YSL      -0.084400
     10 C32          3.3990    -4.4370     7.5800 c3         1 YSL      -0.092100
     11 C18          4.0830     1.1100     0.8000 c3         1 YSL      -0.069700
     12 C19          3.7730     2.3390     1.6580 c3         1 YSL      -0.095100
     13 C17          5.5990     0.9280     0.6980 c3         1 YSL      -0.055700
     14 C13          6.2180     2.0850    -0.0700 c3         1 YSL      -0.061000
     15 C34          5.2350     2.5680    -1.1380 c3         1 YSL      -0.091100
     16 C12          6.7150     3.2800     0.7110 c3         1 YSL      -0.066400
     17 C11          7.1850     4.3350    -0.3060 c3         1 YSL      -0.080400
     18 C10          8.2950     3.7990    -1.2070 c3         1 YSL      -0.043200
     19 C9           7.9180     2.4370    -1.7740 c2         1 YSL      -0.096400
     20 C14          7.4480     1.4340    -0.7650 c3         1 YSL      -0.033500
     21 C15          6.8320     0.1440    -1.3130 c3         1 YSL      -0.079400
     22 C16          5.9350    -0.3360    -0.1380 c3         1 YSL      -0.081400
     23 C8           8.0010     2.1590    -3.0700 ce         1 YSL      -0.151000
     24 C7           8.4710     3.1840    -4.0150 ce         1 YSL      -0.133000
     25 C6           8.4520     2.9430    -5.3210 c2         1 YSL      -0.110400
     26 C5           9.0550     3.9300    -6.2950 c3         1 YSL      -0.051200
     27 C4          10.0940     3.1980    -7.1520 c3         1 YSL       0.194800
     28 O31         11.2310     2.8690    -6.3530 oh         1 YSL      -0.603800
     29 C3           9.4690     1.9320    -7.6920 c2         1 YSL      -0.150400
     30 C33          9.4500     1.6930    -8.9800 c2         1 YSL      -0.191000
     31 C2           8.8660     0.9450    -6.7180 c3         1 YSL       0.194800
     32 O32          8.2340    -0.1140    -7.4390 oh         1 YSL      -0.603800
     33 C1           7.8320     1.6740    -5.8600 c3         1 YSL      -0.051200
     34 H1          -0.3140    -0.0860    -0.8850 ho         1 YSL       0.400000
     35 H2           1.7900     0.8850    -0.5110 h1         1 YSL       0.019700
     36 H3           1.7900    -0.8850    -0.5110 h1         1 YSL       0.019700
     37 H4           1.5040    -0.8350     1.9800 hc         1 YSL       0.057200
     38 H5           1.6550     0.9270     1.9270 hc         1 YSL       0.057200
     39 H6           3.7500    -1.0120     0.8830 hc         1 YSL       0.053700
     40 H7           3.6000     0.5760     3.4710 hc         1 YSL       0.046200
     41 H8           5.0450    -0.2660     2.8940 hc         1 YSL       0.046200
     42 H9           3.8040    -2.4040     2.9060 hc         1 YSL       0.043200
     43 H10          2.3590    -1.5630     3.4820 hc         1 YSL       0.043200
     44 H11          3.5780    -0.8590     5.5150 hc         1 YSL       0.040200
     45 H12          5.0230    -1.7000     4.9400 hc         1 YSL       0.040200
     46 H13          3.7830    -3.8390     4.9510 hc         1 YSL       0.041200
     47 H14          2.3370    -2.9980     5.5270 hc         1 YSL       0.041200
     48 H15          5.0020    -3.1360     6.9850 hc         1 YSL       0.039700
     49 H16          3.5560    -2.2940     7.5600 hc         1 YSL       0.039700
     50 H17          3.8880    -5.2770     7.1020 hc         1 YSL       0.032367
     51 H18          2.3290    -4.5060     7.4250 hc         1 YSL       0.032367
     52 H19          3.6110    -4.4530     8.6420 hc         1 YSL       0.032367
     53 H20          3.6680     1.2470    -0.1910 hc         1 YSL       0.059700
     54 H21          2.9520     2.1140     2.3280 hc         1 YSL       0.037700
     55 H22          4.6490     2.6040     2.2380 hc         1 YSL       0.037700
     56 H23          3.5000     3.1670     1.0170 hc         1 YSL       0.037700
     57 H24          6.0420     0.8530     1.6830 hc         1 YSL       0.057700
     58 H25          4.4230     3.1060    -0.6640 hc         1 YSL       0.039700
     59 H26          5.7470     3.2240    -1.8310 hc         1 YSL       0.039700
     60 H27          4.8380     1.7150    -1.6750 hc         1 YSL       0.039700
     61 H28          7.5450     2.9850     1.3430 hc         1 YSL       0.045200
     62 H29          5.9110     3.6840     1.3140 hc         1 YSL       0.045200
     63 H30          7.5550     5.1990     0.2320 hc         1 YSL       0.043700
     64 H31          6.3430     4.6290    -0.9210 hc         1 YSL       0.043700
     65 H32          8.4540     4.4930    -2.0240 hc         1 YSL       0.050200
     66 H33          9.2060     3.7050    -0.6290 hc         1 YSL       0.050200
     67 H34          8.2250     1.2150    -0.0430 hc         1 YSL       0.066700
     68 H35          7.6030    -0.5860    -1.5280 hc         1 YSL       0.046700
     69 H36          6.2330     0.3500    -2.1920 hc         1 YSL       0.046700
     70 H37          6.4730    -1.0510     0.4710 hc         1 YSL       0.044200
     71 H38          5.0240    -0.7770    -0.5240 hc         1 YSL       0.044200
     72 H39          7.7230     1.1760    -3.4320 ha         1 YSL       0.134000
     73 H40          8.9220     4.0960    -3.6410 ha         1 YSL       0.131000
     74 H41          9.5350     4.7320    -5.7480 hc         1 YSL       0.057950
     75 H42          8.2770     4.3320    -6.9330 hc         1 YSL       0.057950
     76 H43         10.3950     3.8330    -7.9770 h1         1 YSL       0.046200
     77 H44         11.9970     3.2910    -6.7050 ho         1 YSL       0.401500
     78 H45          9.8850     2.4070    -9.6700 ha         1 YSL       0.122000
     79 H46          9.0000     0.7830    -9.3560 ha         1 YSL       0.122000
     80 H47          9.6450     0.5430    -6.0820 h1         1 YSL       0.046200
     81 H48          8.4880    -0.9430    -7.0690 ho         1 YSL       0.401500
     82 H49          6.9680     1.9220    -6.4650 hc         1 YSL       0.057950
     83 H50          7.5330     1.0390    -5.0350 hc         1 YSL       0.057950
@<TRIPOS>BOND
     1     8     9 1
     2     8     7 1
     3    10     9 1
     4     7     6 1
     5     6     5 1
     6     5     4 1
     7     3     4 1
     8     3     2 1
     9    12    11 1
    10     4    11 1
    11    11    13 1
    12     1     2 1
    13    16    17 1
    14    16    14 1
    15    13    14 1
    16    13    22 1
    17    17    18 1
    18    14    20 1
    19    14    15 1
    20    22    21 1
    21    20    21 1
    22    20    19 1
    23    18    19 1
    24    19    23 2
    25    23    24 1
    26    24    25 2
    27    25    26 1
    28    25    33 1
    29    26    27 1
    30    33    31 1
    31    28    27 1
    32    27    29 1
    33    31    29 1
    34    31    32 1
    35    29    30 2
    36     1    34 1
    37     2    35 1
    38     2    36 1
    39     3    37 1
    40     3    38 1
    41     4    39 1
    42     5    40 1
    43     5    41 1
    44     6    42 1
    45     6    43 1
    46     7    44 1
    47     7    45 1
    48     8    46 1
    49     8    47 1
    50     9    48 1
    51     9    49 1
    52    10    50 1
    53    10    51 1
    54    10    52 1
    55    11    53 1
    56    12    54 1
    57    12    55 1
    58    12    56 1
    59    13    57 1
    60    15    58 1
    61    15    59 1
    62    15    60 1
    63    16    61 1
    64    16    62 1
    65    17    63 1
    66    17    64 1
    67    18    65 1
    68    18    66 1
    69    20    67 1
    70    21    68 1
    71    21    69 1
    72    22    70 1
    73    22    71 1
    74    23    72 1
    75    24    73 1
    76    26    74 1
    77    26    75 1
    78    27    76 1
    79    28    77 1
    80    30    78 1
    81    30    79 1
    82    31    80 1
    83    32    81 1
    84    33    82 1
    85    33    83 1
@<TRIPOS>SUBSTRUCTURE
     1 YSL         1 TEMP              0 ****  ****    0 ROOT
