@<TRIPOS>MOLECULE
YSO
   18    19     1     0     0
SMALL
bcc


@<TRIPOS>ATOM
      1 CAK         -0.7240    -0.0000    -1.2370 cg         1 YSO       0.233800
      2 NAA         -1.2800    -0.0030    -2.2260 n1         1 YSO      -0.384800
      3 CAC          0.0000     0.0000     0.0000 ca         1 YSO       0.125000
      4 CAB          1.3910     0.0000     0.0000 ca         1 YSO      -0.133000
      5 CAD          2.0900     0.0000     1.1960 ca         1 YSO      -0.061000
      6 CAL          1.4250     0.0000     2.4030 ca         1 YSO      -0.116000
      7 CAH          0.0320    -0.0010     2.4360 ca         1 YSO      -0.166200
      8 NAM         -0.8900    -0.0030     3.4500 na         1 YSO       0.424900
      9 NAJ         -2.1770    -0.0040     2.9020 nc         1 YSO      -0.681100
     10 CAE         -2.1050    -0.0020     1.5970 cd         1 YSO       0.497800
     11 C5          -0.6920     0.0050     1.2290 ca         1 YSO      -0.266900
     12 NAI         -3.1880    -0.0040     0.7110 nv         1 YSO      -0.517800
     13 HAB          1.9330     0.5750    -0.7410 ha         1 YSO       0.120000
     14 HAD          3.1730     0.0000     1.1910 ha         1 YSO       0.108000
     15 HAL          1.9850     0.0000     3.3300 ha         1 YSO       0.107000
     16 HAM         -0.6860    -0.0040     4.4300 hn         1 YSO       0.154700
     17 HAI1        -3.9290    -0.6670     0.8270 hn         1 YSO       0.277800
     18 HAI2        -3.1970     0.6250    -0.0680 hn         1 YSO       0.277800
@<TRIPOS>BOND
     1     1     2 3   
     2     1     3 1   
     3     3     4 ar  
     4     3    11 ar  
     5     4     5 ar  
     6     4    13 1   
     7     5     6 ar  
     8     5    14 1   
     9     6     7 ar  
    10     6    15 1   
    11     7     8 1   
    12     7    11 ar  
    13     8     9 1   
    14     8    16 1   
    15     9    10 2   
    16    10    11 1   
    17    10    12 1   
    18    12    17 1   
    19    12    18 1   
@<TRIPOS>SUBSTRUCTURE
     1 YSO         1 TEMP              0 ****  ****    0 ROOT
