@<TRIPOS>MOLECULE
molecule
   74    76     1     0     0
SMALL
bcc


@<TRIPOS>ATOM
      1 O3           0.0000     0.0000     0.0000 oh         1 YSV      -0.603800
      2 C25          1.4290     0.0000     0.0000 c3         1 YSV       0.146800
      3 C27          1.9400     0.0000     1.4420 c3         1 YSV      -0.121100
      4 C26          1.9390    -1.2490    -0.7220 c3         1 YSV      -0.121100
      5 C24          1.9400     1.2490    -0.7220 c3         1 YSV      -0.064400
      6 C23          1.4290     1.2490    -2.1630 c3         1 YSV      -0.082400
      7 C22          1.9390     2.4990    -2.8850 c3         1 YSV      -0.082400
      8 C20          1.4290     2.4990    -4.3270 c3         1 YSV      -0.069700
      9 C21         -0.0960     2.6250    -4.3290 c3         1 YSV      -0.096100
     10 C17          2.0390     3.6810    -5.0830 c3         1 YSV      -0.054700
     11 C16          3.5820     3.5350    -5.1550 c3         1 YSV      -0.081400
     12 C13          1.5720     3.6800    -6.5300 c3         1 YSV      -0.061000
     13 C18          1.3970     2.2350    -7.0040 c3         1 YSV      -0.092100
     14 C14          2.7730     4.3100    -7.2930 c3         1 YSV      -0.035500
     15 C15          3.9530     3.5580    -6.6650 c3         1 YSV      -0.077400
     16 C12          0.3370     4.4740    -6.8870 c3         1 YSV      -0.065400
     17 C11          0.0290     4.2120    -8.3700 c3         1 YSV      -0.078400
     18 C9           1.1920     4.6200    -9.2720 c3         1 YSV      -0.044200
     19 C8           2.4980     4.0660    -8.7470 c2         1 YSV      -0.092400
     20 C7           3.3400     3.3970    -9.5270 ce         1 YSV      -0.156000
     21 C6           3.0920     3.3110   -10.9750 ce         1 YSV      -0.131000
     22 C5           3.8710     2.5550   -11.7390 c2         1 YSV      -0.111400
     23 C10          3.5400     2.3360   -13.1980 c3         1 YSV      -0.051200
     24 C4           5.1080     1.9010   -11.1670 c3         1 YSV      -0.051200
     25 C3           6.3170     2.3150   -12.0160 c3         1 YSV       0.194300
     26 O2           7.4510     1.5250   -11.6550 oh         1 YSV      -0.603800
     27 C2           5.9820     2.0920   -13.4730 c2         1 YSV      -0.150400
     28 C28          6.7510     1.3450   -14.2280 c2         1 YSV      -0.191000
     29 C1           4.7520     2.7490   -14.0420 c3         1 YSV       0.194300
     30 O1           4.9060     4.1690   -14.0070 oh         1 YSV      -0.603800
     31 H1          -0.3140    -0.6230     0.6340 ho         1 YSV       0.401000
     32 H2           3.0230     0.0130     1.4410 hc         1 YSV       0.041700
     33 H3           1.5690     0.8780     1.9560 hc         1 YSV       0.041700
     34 H4           1.5900    -0.8910     1.9490 hc         1 YSV       0.041700
     35 H5           2.9350    -1.0630    -1.1070 hc         1 YSV       0.041700
     36 H6           1.2740    -1.4890    -1.5430 hc         1 YSV       0.041700
     37 H7           1.9700    -2.0810    -0.0280 hc         1 YSV       0.041700
     38 H8           1.5800     2.1340    -0.2110 hc         1 YSV       0.047700
     39 H9           3.0230     1.2490    -0.7220 hc         1 YSV       0.047700
     40 H10          0.3460     1.2490    -2.1630 hc         1 YSV       0.052200
     41 H11          1.7900     0.3650    -2.6740 hc         1 YSV       0.052200
     42 H12          3.0230     2.4990    -2.8860 hc         1 YSV       0.040700
     43 H13          1.5780     3.3840    -2.3740 hc         1 YSV       0.040700
     44 H14          1.7150     1.5740    -4.8120 hc         1 YSV       0.058700
     45 H15         -0.4880     2.2740    -3.3820 hc         1 YSV       0.037367
     46 H16         -0.5070     2.0280    -5.1340 hc         1 YSV       0.037367
     47 H17         -0.3720     3.6630    -4.4710 hc         1 YSV       0.037367
     48 H18          1.7740     4.6170    -4.6060 hc         1 YSV       0.053700
     49 H19          3.8860     2.5950    -4.7130 hc         1 YSV       0.043700
     50 H20          4.0570     4.3640    -4.6450 hc         1 YSV       0.043700
     51 H21          2.1240     1.6020    -6.5080 hc         1 YSV       0.040033
     52 H22          1.5470     2.1850    -8.0750 hc         1 YSV       0.040033
     53 H23          0.3970     1.8940    -6.7620 hc         1 YSV       0.040033
     54 H24          2.8400     5.3720    -7.0860 hc         1 YSV       0.066700
     55 H25          4.8780     4.0980    -6.8230 hc         1 YSV       0.046700
     56 H26          4.0160     2.5500    -7.0580 hc         1 YSV       0.046700
     57 H27          0.5240     5.5300    -6.7320 hc         1 YSV       0.045200
     58 H28         -0.4960     4.1490    -6.2770 hc         1 YSV       0.045200
     59 H29         -0.1680     3.1560    -8.5070 hc         1 YSV       0.042700
     60 H30         -0.8490     4.7800    -8.6520 hc         1 YSV       0.042700
     61 H31          1.0190     4.2350   -10.2700 hc         1 YSV       0.049700
     62 H32          1.2530     5.7010    -9.3060 hc         1 YSV       0.049700
     63 H33          4.2300     2.9480    -9.1030 ha         1 YSV       0.134000
     64 H34          2.2100     3.7780   -11.3980 ha         1 YSV       0.131000
     65 H35          3.3200     1.2890   -13.3670 hc         1 YSV       0.057950
     66 H36          2.6840     2.9420   -13.4710 hc         1 YSV       0.057950
     67 H37          4.9960     0.8240   -11.1960 hc         1 YSV       0.057950
     68 H38          5.2530     2.2300   -10.1450 hc         1 YSV       0.057950
     69 H39          6.5320     3.3640   -11.8520 h1         1 YSV       0.046200
     70 H40          8.0170     2.0260   -11.0920 ho         1 YSV       0.401500
     71 H41          6.5030     1.1930   -15.2710 ha         1 YSV       0.121500
     72 H42          7.6350     0.8810   -13.8090 ha         1 YSV       0.121500
     73 H43          4.6080     2.4210   -15.0640 h1         1 YSV       0.046200
     74 H44          4.8930     4.5090   -14.8860 ho         1 YSV       0.401500
@<TRIPOS>BOND
     1    28    27 2
     2    26    25 1
     3    27    25 1
     4    27    29 1
     5    25    24 1
     6    29    30 1
     7    29    23 1
     8    24    22 1
     9    23    22 1
    10    22    21 2
    11    21    20 1
    12    20    19 2
    13    19    14 1
    14    19    18 1
    15    15    14 1
    16    15    11 1
    17    13    12 1
    18    14    12 1
    19    18    17 1
    20    11    10 1
    21    12    10 1
    22    12    16 1
    23     4     2 1
    24     5     2 1
    25     5     6 1
    26    17    16 1
    27     7     6 1
    28     7     8 1
    29    10     8 1
    30     2     3 1
    31     2     1 1
    32     8     9 1
    33     1    31 1
    34     3    32 1
    35     3    33 1
    36     3    34 1
    37     4    35 1
    38     4    36 1
    39     4    37 1
    40     5    38 1
    41     5    39 1
    42     6    40 1
    43     6    41 1
    44     7    42 1
    45     7    43 1
    46     8    44 1
    47     9    45 1
    48     9    46 1
    49     9    47 1
    50    10    48 1
    51    11    49 1
    52    11    50 1
    53    13    51 1
    54    13    52 1
    55    13    53 1
    56    14    54 1
    57    15    55 1
    58    15    56 1
    59    16    57 1
    60    16    58 1
    61    17    59 1
    62    17    60 1
    63    18    61 1
    64    18    62 1
    65    20    63 1
    66    21    64 1
    67    23    65 1
    68    23    66 1
    69    24    67 1
    70    24    68 1
    71    25    69 1
    72    26    70 1
    73    28    71 1
    74    28    72 1
    75    29    73 1
    76    30    74 1
@<TRIPOS>SUBSTRUCTURE
     1 YSV         1 TEMP              0 ****  ****    0 ROOT
