@<TRIPOS>MOLECULE
YT5
   64    70     1     0     0
SMALL
bcc


@<TRIPOS>ATOM
      1 CAI          0.0000     0.0000     0.0000 c3         1 YT5      -0.093000
      2 CAD          1.5300     0.0000     0.0000 c3         1 YT5      -0.131000
      3 CAC          2.0620     0.0000     1.4180 c2         1 YT5       0.229000
      4 OAG          1.8670    -0.8690     2.2400 o          1 YT5      -0.331000
      5 NAB          2.7830     1.1110     1.6170 ns         1 YT5       0.070000
      6 CAA          2.8550     1.9230     0.5560 c2         1 YT5       0.240000
      7 OAF          3.4540     2.9760     0.5170 o          1 YT5      -0.344000
      8 CAE          2.0740     1.3150    -0.5930 c3         1 YT5      -0.187000
      9 C            2.9800     1.0390    -1.7650 c2         1 YT5       0.283000
     10 O            3.4990    -0.0460    -1.8840 o          1 YT5      -0.293000
     11 CA           3.2400     2.1150    -2.7870 c3         1 YT5      -0.091000
     12 CB           2.9750     1.5610    -4.1880 c3         1 YT5      -0.100000
     13 CG2          1.5400     1.0370    -4.2670 c3         1 YT5      -0.127500
     14 CG1          3.1670     2.6740    -5.2220 c3         1 YT5      -0.127500
     15 N            4.6350     2.5530    -2.6910 ns         1 YT5       0.018000
     16 CAQ          4.9840     3.7880    -3.1040 c2         1 YT5       0.223000
     17 OAS          4.1420     4.5360    -3.5550 o          1 YT5      -0.410000
     18 CAR          6.4170     4.2380    -3.0050 c3         1 YT5      -0.137000
     19 CAT          6.5420     5.6680    -3.5370 c3         1 YT5       0.014000
     20 CBB          7.9490     6.1630    -3.3250 ca         1 YT5      -0.109000
     21 CBC          8.2370     6.9920    -2.2570 ca         1 YT5      -0.083000
     22 CBD          9.5280     7.4460    -2.0630 ca         1 YT5      -0.099500
     23 CBE         10.5310     7.0720    -2.9380 ca         1 YT5      -0.097000
     24 CBF         10.2420     6.2430    -4.0060 ca         1 YT5      -0.099500
     25 CBG          8.9530     5.7840    -4.1970 ca         1 YT5      -0.083000
     26 NAU          6.2270     5.6860    -4.9680 n7         1 YT5       0.007000
     27 CAV          5.7780     6.8180    -5.5450 c3         1 YT5       0.366000
     28 OBH          5.6330     7.8250    -4.8780 o          1 YT5      -0.452000
     29 CAW          5.4640     6.8350    -6.9730 c2         1 YT5      -0.500000
     30 CAX          5.0130     7.9720    -7.5520 c3         1 YT5       0.090000
     31 CAY          4.6990     7.9890    -8.9820 c3         1 YT5      -0.147000
     32 CAZ          4.2540     9.1100    -9.5530 c2         1 YT5      -0.466000
     33 CBA          3.9320     9.1280   -11.0240 DU         1 YT5      -0.070000
     34 H1          -0.3610     0.8730     0.5300 hc         1 YT5       0.053333
     35 H2          -0.3610     0.0220    -1.0210 hc         1 YT5       0.053333
     36 H3          -0.3610    -0.8950     0.4910 hc         1 YT5       0.053333
     37 H4           1.9160    -0.8510    -0.5490 hc         1 YT5       0.128000
     38 H5           3.2300     1.3170     2.4880 hn         1 YT5       0.111000
     39 H6           1.2570     1.9660    -0.8810 hc         1 YT5       0.125000
     40 H7           2.5830     2.9560    -2.6000 h1         1 YT5       0.115000
     41 H8           3.6660     0.7530    -4.3950 hc         1 YT5       0.080000
     42 H9           1.4840     0.0650    -3.7910 hc         1 YT5       0.052000
     43 H10          1.2440     0.9480    -5.3050 hc         1 YT5       0.052000
     44 H11          0.8750     1.7260    -3.7600 hc         1 YT5       0.052000
     45 H12          2.6890     2.3900    -6.1510 hc         1 YT5       0.052000
     46 H13          4.2260     2.8290    -5.3930 hc         1 YT5       0.052000
     47 H14          2.7230     3.5900    -4.8530 hc         1 YT5       0.052000
     48 H15          5.3290     1.9360    -2.3170 hn         1 YT5       0.094000
     49 H16          6.7340     4.2100    -1.9700 hc         1 YT5       0.080500
     50 H17          7.0440     3.5790    -3.5930 hc         1 YT5       0.080500
     51 H18          5.8500     6.3110    -3.0070 h1         1 YT5       0.117000
     52 H19          7.4510     7.2840    -1.5710 ha         1 YT5       0.106000
     53 H20          9.7550     8.0950    -1.2270 ha         1 YT5       0.102500
     54 H21         11.5420     7.4300    -2.7880 ha         1 YT5       0.101000
     55 H22         11.0290     5.9480    -4.6910 ha         1 YT5       0.102500
     56 H23          8.7270     5.1340    -5.0330 ha         1 YT5       0.106000
     57 H24          6.3780     4.8670    -5.5230 hn         1 YT5       0.096000
     58 H25          4.7240     6.7680    -6.1850 DU         1 YT5       0.123000
     59 H27          4.1070     7.5640    -7.9840 DU         1 YT5       0.247000
     60 H29          3.9580     7.9240    -8.1940 DU         1 YT5       0.247000
     61 H31          4.9950     9.1760   -10.3410 DU         1 YT5       0.244000
     62 H33          4.4080     8.2840   -11.5090 ha         1 YT5       0.053667
     63 H34          4.2970    10.0490   -11.4630 ha         1 YT5       0.053667
     64 H35          2.8590     9.0640   -11.1600 ha         1 YT5       0.053667
@<TRIPOS>BOND
     1     1     2 1   
     2     1    34 1   
     3     1    35 1   
     4     1    36 1   
     5     2     3 1   
     6     2     8 1   
     7     2    37 1   
     8     3     4 1   
     9     3     5 1   
    10     5     6 1   
    11     5    38 1   
    12     6     7 1   
    13     6     8 1   
    14     8     9 1   
    15     8    39 1   
    16     9    10 1   
    17     9    11 1   
    18    11    12 1   
    19    11    15 1   
    20    11    40 1   
    21    12    13 1   
    22    12    14 1   
    23    12    41 1   
    24    13    42 1   
    25    13    43 1   
    26    13    44 1   
    27    14    45 1   
    28    14    46 1   
    29    14    47 1   
    30    15    16 1   
    31    15    48 1   
    32    16    17 1   
    33    16    18 1   
    34    18    19 1   
    35    18    49 1   
    36    18    50 1   
    37    19    20 1   
    38    19    26 1   
    39    19    51 1   
    40    20    21 1   
    41    20    25 1   
    42    21    22 1   
    43    21    52 1   
    44    22    23 1   
    45    22    53 1   
    46    23    24 1   
    47    23    54 1   
    48    24    25 1   
    49    24    55 1   
    50    25    56 1   
    51    26    27 1   
    52    26    57 1   
    53    27    28 1   
    54    27    29 1   
    55    27    58 1   
    56    29    30 1   
    57    29    58 1   
    58    30    31 1   
    59    30    59 1   
    60    30    60 1   
    61    31    32 1   
    62    31    59 1   
    63    31    60 1   
    64    32    33 1   
    65    32    61 1   
    66    33    61 1   
    67    33    62 1   
    68    33    63 1   
    69    33    64 1   
    70    59    60 1   
@<TRIPOS>SUBSTRUCTURE
     1 YT5         1 TEMP              0 ****  ****    0 ROOT
