@<TRIPOS>MOLECULE
molecule
   64    65     1     0     0
SMALL
bcc


@<TRIPOS>ATOM
      1 CAI          0.0000     0.0000     0.0000 c3         1 YT5      -0.079100
      2 CAD          1.5300     0.0000     0.0000 c3         1 YT5      -0.158700
      3 CAC          2.0620     0.0000     1.4180 c          1 YT5       0.709500
      4 OAG          1.8670    -0.8690     2.2400 o          1 YT5      -0.574500
      5 NAB          2.7830     1.1110     1.6170 ns         1 YT5      -0.575500
      6 CAA          2.8550     1.9230     0.5560 c          1 YT5       0.718500
      7 OAF          3.4540     2.9760     0.5170 o          1 YT5      -0.575500
      8 CAE          2.0740     1.3150    -0.5930 c3         1 YT5      -0.269700
      9 C            2.9800     1.0390    -1.7650 c          1 YT5       0.577100
     10 O            3.4990    -0.0460    -1.8840 o          1 YT5      -0.503100
     11 CA           3.2400     2.1150    -2.7870 c3         1 YT5       0.038700
     12 CB           2.9750     1.5610    -4.1880 c3         1 YT5      -0.085700
     13 CG2          1.5400     1.0370    -4.2670 c3         1 YT5      -0.092600
     14 CG1          3.1670     2.6740    -5.2220 c3         1 YT5      -0.092600
     15 N            4.6350     2.5530    -2.6910 ns         1 YT5      -0.575900
     16 CAQ          4.9840     3.7880    -3.1040 c          1 YT5       0.660100
     17 OAS          4.1420     4.5360    -3.5550 o          1 YT5      -0.593100
     18 CAR          6.4170     4.2380    -3.0050 c3         1 YT5      -0.166400
     19 CAT          6.5420     5.6680    -3.5370 c3         1 YT5       0.184000
     20 CBB          7.9490     6.1630    -3.3250 ca         1 YT5      -0.104300
     21 CBC          8.2370     6.9920    -2.2570 ca         1 YT5      -0.111500
     22 CBD          9.5280     7.4460    -2.0630 ca         1 YT5      -0.128500
     23 CBE         10.5310     7.0720    -2.9380 ca         1 YT5      -0.125000
     24 CBF         10.2420     6.2430    -4.0060 ca         1 YT5      -0.128500
     25 CBG          8.9530     5.7840    -4.1970 ca         1 YT5      -0.111500
     26 NAU          6.2270     5.6860    -4.9680 ns         1 YT5      -0.569900
     27 CAV          5.7780     6.8180    -5.5450 c          1 YT5       0.675300
     28 OBH          5.6330     7.8250    -4.8780 o          1 YT5      -0.613100
     29 CAW          5.4640     6.8350    -6.9730 ce         1 YT5      -0.251200
     30 CAX          5.0130     7.9720    -7.5520 cf         1 YT5      -0.046000
     31 CAY          4.6990     7.9890    -8.9820 cf         1 YT5      -0.171000
     32 CAZ          4.2540     9.1100    -9.5530 c2         1 YT5      -0.138200
     33 CBA          3.9320     9.1280   -11.0240 c3         1 YT5      -0.065900
     34 H1          -0.3610     0.0220    -1.0210 hc         1 YT5       0.050700
     35 H2          -0.3610     0.8730     0.5300 hc         1 YT5       0.050700
     36 H3          -0.3610    -0.8950     0.4910 hc         1 YT5       0.050700
     37 H4           1.9160    -0.8500    -0.5490 hc         1 YT5       0.116700
     38 H5           3.2290     1.3170     2.4880 hn         1 YT5       0.350500
     39 H6           1.2570     1.9660    -0.8810 hc         1 YT5       0.112700
     40 H7           2.5830     2.9560    -2.6010 h1         1 YT5       0.095700
     41 H8           3.6660     0.7530    -4.3950 hc         1 YT5       0.064700
     42 H9           0.8840     1.6940    -3.7090 hc         1 YT5       0.041867
     43 H10          1.4960     0.0400    -3.8440 hc         1 YT5       0.041867
     44 H11          1.2230     1.0040    -5.3020 hc         1 YT5       0.041867
     45 H12          4.2240     2.8030    -5.4200 hc         1 YT5       0.041867
     46 H13          2.7560     3.5990    -4.8370 hc         1 YT5       0.041867
     47 H14          2.6580     2.4060    -6.1390 hc         1 YT5       0.041867
     48 H15          5.3240     1.9450    -2.2940 hn         1 YT5       0.321500
     49 H16          7.0440     3.5790    -3.5930 hc         1 YT5       0.072200
     50 H17          6.7340     4.2090    -1.9700 hc         1 YT5       0.072200
     51 H18          5.8500     6.3110    -3.0070 h1         1 YT5       0.105700
     52 H19          7.4510     7.2840    -1.5710 ha         1 YT5       0.130000
     53 H20          9.7550     8.0950    -1.2270 ha         1 YT5       0.129500
     54 H21         11.5420     7.4300    -2.7880 ha         1 YT5       0.128000
     55 H22         11.0290     5.9480    -4.6910 ha         1 YT5       0.129500
     56 H23          8.7270     5.1340    -5.0330 ha         1 YT5       0.130000
     57 H24          6.3540     4.8600    -5.5180 hn         1 YT5       0.308500
     58 H25          5.5930     5.9390    -7.5670 ha         1 YT5       0.124000
     59 H27          4.8840     8.8680    -6.9580 ha         1 YT5       0.156000
     60 H29          4.8280     7.0930    -9.5760 ha         1 YT5       0.128000
     61 H31          4.1260    10.0060    -8.9580 ha         1 YT5       0.131000
     62 H33          3.5990    10.1190   -11.3090 hc         1 YT5       0.044700
     63 H34          3.1470     8.4100   -11.2310 hc         1 YT5       0.044700
     64 H35          4.8180     8.8680   -11.5910 hc         1 YT5       0.044700
@<TRIPOS>BOND
     1    23    24 ar
     2    23    22 ar
     3    24    25 ar
     4    22    21 ar
     5    25    20 ar
     6    21    20 ar
     7    20    19 1
     8    18    19 1
     9    18    16 1
    10     7     6 2
    11     1     2 1
    12    19    26 1
    13    16    17 2
    14    16    15 1
    15     8     6 1
    16     8     2 1
    17     8     9 1
    18     6     5 1
    19     5     3 1
    20    15    11 1
    21     3     2 1
    22     3     4 2
    23    10     9 2
    24     9    11 1
    25    26    27 1
    26    11    12 1
    27    27    28 2
    28    27    29 1
    29    12    13 1
    30    12    14 1
    31    29    30 2
    32    30    31 1
    33    31    32 2
    34    32    33 1
    35     1    34 1
    36     1    35 1
    37     1    36 1
    38     2    37 1
    39     5    38 1
    40     8    39 1
    41    11    40 1
    42    12    41 1
    43    13    42 1
    44    13    43 1
    45    13    44 1
    46    14    45 1
    47    14    46 1
    48    14    47 1
    49    15    48 1
    50    18    49 1
    51    18    50 1
    52    19    51 1
    53    21    52 1
    54    22    53 1
    55    23    54 1
    56    24    55 1
    57    25    56 1
    58    26    57 1
    59    29    58 1
    60    30    59 1
    61    31    60 1
    62    32    61 1
    63    33    62 1
    64    33    63 1
    65    33    64 1
@<TRIPOS>SUBSTRUCTURE
     1 YT5         1 TEMP              0 ****  ****    0 ROOT
