@<TRIPOS>MOLECULE
YTB
   22    22     1     0     0
SMALL
bcc


@<TRIPOS>ATOM
      1 O6           0.0000     0.0000     0.0000 oh         1 YTB      -0.569800
      2 C5           1.4290     0.0000     0.0000 c3         1 YTB       0.169100
      3 C4           1.9580     0.0000     1.4490 c3         1 YTB       0.166100
      4 O4           3.1670     0.7550     1.5410 oh         1 YTB      -0.546800
      5 C3           2.2280    -1.4940     1.7550 c3         1 YTB       0.166100
      6 O3           3.1970    -1.6300     2.7970 oh         1 YTB      -0.546800
      7 C1           1.9560    -1.2860    -0.6590 c3         1 YTB      -0.113500
      8 N1           2.8050    -0.9500    -1.8110 nz         1 YTB       0.093400
      9 C2           2.7870    -2.0230     0.4110 c3         1 YTB       0.169100
     10 O2           4.1730    -1.6950     0.2830 oh         1 YTB      -0.569800
     11 HO6         -0.3140     0.8210    -0.3420 ho         1 YTB       0.423500
     12 H5           1.8040     0.8670    -0.5300 h1         1 YTB       0.024700
     13 H4           1.2070     0.3930     2.1240 h1         1 YTB       0.040200
     14 HO4          3.0360     1.4900     2.1170 ho         1 YTB       0.407500
     15 H3           1.3060    -2.0030     2.0110 h1         1 YTB       0.040200
     16 HO3          2.8290    -2.1330     3.5050 ho         1 YTB       0.407500
     17 H1           1.1260    -1.9070    -0.9730 hx         1 YTB       0.106700
     18 HN1          3.2380    -1.7820    -2.1600 hn         1 YTB       0.227133
     19 HN1A         3.5110    -0.3000    -1.5260 hn         1 YTB       0.227133
     20 H2           2.6360    -3.0920     0.3350 h1         1 YTB       0.024700
     21 HO2          4.6890    -2.4810     0.3590 ho         1 YTB       0.423500
     22 H13          2.2470    -0.5240    -2.5240 hn         1 YTB       0.227133
@<TRIPOS>BOND
     1     1     2 1   
     2     1    11 1   
     3     2     3 1   
     4     2     7 1   
     5     2    12 1   
     6     3     4 1   
     7     3     5 1   
     8     3    13 1   
     9     4    14 1   
    10     5     6 1   
    11     5     9 1   
    12     5    15 1   
    13     6    16 1   
    14     7     8 1   
    15     7     9 1   
    16     7    17 1   
    17     8    18 1   
    18     8    19 1   
    19     8    22 1   
    20     9    10 1   
    21     9    20 1   
    22    10    21 1   
@<TRIPOS>SUBSTRUCTURE
     1 YTB         1 TEMP              0 ****  ****    0 ROOT
