@<TRIPOS>MOLECULE
molecule
   21    21     1     0     0
SMALL
bcc


@<TRIPOS>ATOM
      1 C1           0.0000     0.0000     0.0000 ca         1 YTP       0.146100
      2 C2           1.3910     0.0000     0.0000 ca         1 YTP      -0.202000
      3 C3           2.0780     0.0000     1.1800 ca         1 YTP      -0.048000
      4 C4           1.3840     0.0030     2.3960 ca         1 YTP      -0.200600
      5 C5          -0.0170     0.0040     2.3960 ca         1 YTP      -0.069000
      6 C6          -0.7000     0.0020     1.2010 ca         1 YTP      -0.115300
      7 C7           2.1210     0.0040     3.6660 c          1 YTP       0.578700
      8 O8           3.3290    -0.1000     3.6660 o          1 YTP      -0.532100
      9 C9           1.3760     0.1310     4.9690 c3         1 YTP      -0.192100
     10 C10         -2.2070     0.0040     1.1960 c3         1 YTP      -0.043800
     11 O11         -0.6760     0.0050    -1.1760 oh         1 YTP      -0.509100
     12 H2           1.9310    -0.0020    -0.9390 ha         1 YTP       0.140000
     13 H3           3.1620    -0.0000     1.1750 ha         1 YTP       0.155000
     14 H5          -0.5600     0.0060     3.3330 ha         1 YTP       0.139000
     15 H9           0.7530    -0.7430     5.1150 hc         1 YTP       0.061367
     16 H9A          0.7550     1.0180     4.9450 hc         1 YTP       0.061367
     17 H9B          2.0860     0.2090     5.7840 hc         1 YTP       0.061367
     18 H10         -2.5710     0.6200     2.0100 hc         1 YTP       0.048367
     19 H10A        -2.5700    -1.0090     1.3200 hc         1 YTP       0.048367
     20 H10B        -2.5650     0.4030     0.2550 hc         1 YTP       0.048367
     21 HO11        -0.3430    -0.6800    -1.7330 ho         1 YTP       0.426000
@<TRIPOS>BOND
     1     6     1 ar
     2    11     1 1
     3     1     2 ar
     4     2     3 ar
     5     2    12 1
     6     4     3 ar
     7     3    13 1
     8     5     4 ar
     9     4     7 1
    10     6     5 ar
    11     5    14 1
    12    10     6 1
    13     9     7 1
    14     7     8 2
    15     9    15 1
    16     9    16 1
    17     9    17 1
    18    10    18 1
    19    10    19 1
    20    10    20 1
    21    11    21 1
@<TRIPOS>SUBSTRUCTURE
     1 YTP         1 TEMP              0 ****  ****    0 ROOT
