@<TRIPOS>MOLECULE
molecule
   32    33     1     0     0
SMALL
bcc


@<TRIPOS>ATOM
      1 C1           0.0000     0.0000     0.0000 ca         1 YTR      -0.039000
      2 C2           1.4000     0.0000     0.0000 ca         1 YTR      -0.158800
      3 C3           2.1040     0.0000     1.2200 ca         1 YTR       0.117600
      4 C4           1.3960     0.0000     2.4180 ca         1 YTR       0.019100
      5 C5           0.0080     0.0000     2.3960 ca         1 YTR       0.167100
      6 C6          -0.6790     0.0060     1.1840 ca         1 YTR      -0.247000
      7 C7           2.1540    -0.0000    -1.2530 cc         1 YTR       0.012600
      8 C8           3.5100    -0.0010    -1.1950 cd         1 YTR      -0.248200
      9 C9           4.1680    -0.0010     0.0530 c          1 YTR       0.697700
     10 N10          3.4850    -0.0010     1.2110 n          1 YTR      -0.328000
     11 O11          5.3870    -0.0020     0.0820 o          1 YTR      -0.647500
     12 C12          4.2150     0.0010     2.4810 c3         1 YTR       0.072300
     13 C13          1.4420    -0.0010    -2.5810 c3         1 YTR      -0.057900
     14 O14          2.0610    -0.0000     3.6060 os         1 YTR      -0.334900
     15 C15          2.2420    -1.2640     4.2480 c3         1 YTR       0.122700
     16 O16         -0.6860     0.0000     3.5640 os         1 YTR      -0.312900
     17 C17         -2.1120     0.0010     3.4720 c3         1 YTR       0.125700
     18 H1          -0.5430     0.0050    -0.9370 ha         1 YTR       0.140000
     19 H6          -1.7620     0.0060     1.1820 ha         1 YTR       0.141000
     20 H8           4.0900    -0.0020    -2.1100 ha         1 YTR       0.164000
     21 H12          3.7650     0.7190     3.1560 h1         1 YTR       0.064033
     22 H12A         5.2490     0.2710     2.3020 h1         1 YTR       0.064033
     23 H12B         4.1720    -0.9870     2.9230 h1         1 YTR       0.064033
     24 H13          0.8220     0.8840    -2.6590 hc         1 YTR       0.051033
     25 H13A         2.1720    -0.0020    -3.3820 hc         1 YTR       0.051033
     26 H13B         0.8210    -0.8850    -2.6570 hc         1 YTR       0.051033
     27 H15          3.1480    -1.2410     4.8400 h1         1 YTR       0.038700
     28 H15A         2.3190    -2.0420     3.4980 h1         1 YTR       0.038700
     29 H15B         1.3950    -1.4660     4.8920 h1         1 YTR       0.038700
     30 H17         -2.5380    -0.0030     4.4680 h1         1 YTR       0.044700
     31 H17A        -2.4390    -0.8810     2.9360 h1         1 YTR       0.044700
     32 H17B        -2.4390     0.8880     2.9430 h1         1 YTR       0.044700
@<TRIPOS>BOND
     1     2     1 ar
     2     6     1 ar
     3     1    18 1
     4     3     2 ar
     5     2     7 1
     6    10     3 1
     7     4     3 ar
     8    14     4 1
     9     4     5 ar
    10    16     5 1
    11     5     6 ar
    12     6    19 1
    13     8     7 2
    14     7    13 1
    15     9     8 1
    16     8    20 1
    17    11     9 2
    18    10     9 1
    19    12    10 1
    20    12    21 1
    21    12    22 1
    22    12    23 1
    23    13    24 1
    24    13    25 1
    25    13    26 1
    26    14    15 1
    27    15    27 1
    28    15    28 1
    29    15    29 1
    30    16    17 1
    31    17    30 1
    32    17    31 1
    33    17    32 1
@<TRIPOS>SUBSTRUCTURE
     1 YTR         1 TEMP              0 ****  ****    0 ROOT
