@<TRIPOS>MOLECULE
molecule
   42    44     1     0     0
SMALL
bcc


@<TRIPOS>ATOM
      1 OB           0.0000     0.0000     0.0000 o          1 YTT      -0.637500
      2 CB           1.2130     0.0000     0.0000 c          1 YTT       0.693000
      3 CAB          1.9310     0.0000     1.3160 c3         1 YTT       0.045700
      4 CBB          1.9340     1.4200     1.8860 c3         1 YTT      -0.046100
      5 CGB          2.5450     1.4070     3.2640 ca         1 YTT      -0.107300
      6 CD3          3.9070     1.5910     3.4160 ca         1 YTT      -0.110750
      7 CE3          4.4700     1.5800     4.6780 ca         1 YTT      -0.150250
      8 CZB          3.6670     1.3830     5.7930 ca         1 YTT       0.109100
      9 OHB          4.2180     1.3710     7.0340 oh         1 YTT      -0.520100
     10 CE4          2.3010     1.1990     5.6370 ca         1 YTT      -0.150250
     11 CD4          1.7430     1.2170     4.3730 ca         1 YTT      -0.110750
     12 NB           3.3060    -0.4570     1.1680 ns         1 YTT      -0.570900
     13 NA           1.8540    -0.0040    -1.1730 ns         1 YTT      -0.570900
     14 CAA          3.3070    -0.0040    -1.2790 c3         1 YTT       0.045700
     15 CA           3.9470    -0.4610    -0.0050 c          1 YTT       0.693000
     16 OA           5.0930    -0.8560    -0.0410 o          1 YTT      -0.637500
     17 CBA          3.7850     1.4150    -1.5980 c3         1 YTT      -0.046100
     18 CGA          3.2810     1.8200    -2.9590 ca         1 YTT      -0.107300
     19 CD2          2.0580     2.4540    -3.0820 ca         1 YTT      -0.110750
     20 CE2          1.5930     2.8260    -4.3280 ca         1 YTT      -0.150250
     21 CZA          2.3560     2.5650    -5.4580 ca         1 YTT       0.109100
     22 OHA          1.9020     2.9310    -6.6850 oh         1 YTT      -0.520100
     23 CE1          3.5820     1.9300    -5.3320 ca         1 YTT      -0.150250
     24 CD1          4.0460     1.5640    -4.0830 ca         1 YTT      -0.110750
     25 HAB          1.4120    -0.6600     2.0010 h1         1 YTT       0.096200
     26 HBB          2.5140     2.0670     1.2390 hc         1 YTT       0.067700
     27 HBBA         0.9160     1.7870     1.9450 hc         1 YTT       0.067700
     28 HD3          4.5330     1.7450     2.5460 ha         1 YTT       0.138750
     29 HE3          5.5370     1.7240     4.7970 ha         1 YTT       0.144500
     30 HOHB         4.4710     0.4910     7.2570 ho         1 YTT       0.421000
     31 HE4          1.6720     1.0480     6.5050 ha         1 YTT       0.144500
     32 HD4          0.6760     1.0730     4.2510 ha         1 YTT       0.138750
     33 HNB          3.7920    -0.7820     1.9800 hn         1 YTT       0.339500
     34 HNA          1.3120    -0.0090    -2.0150 hn         1 YTT       0.339500
     35 HAA          3.6020    -0.6710    -2.0800 h1         1 YTT       0.096200
     36 HBA          4.8680     1.4410    -1.5920 hc         1 YTT       0.067700
     37 HBAA         3.4030     2.1010    -0.8520 hc         1 YTT       0.067700
     38 HD2          1.4630     2.6570    -2.2000 ha         1 YTT       0.138750
     39 HE2          0.6350     3.3220    -4.4240 ha         1 YTT       0.144500
     40 HOHA         1.3970     2.2260    -7.0560 ho         1 YTT       0.421000
     41 HE1          4.1810     1.7280    -6.2120 ha         1 YTT       0.144500
     42 HD1          5.0030     1.0680    -3.9840 ha         1 YTT       0.138750
@<TRIPOS>BOND
     1     1     2 2
     2     2     3 1
     3     2    13 1
     4     3     4 1
     5     3    12 1
     6     4     5 1
     7     5     6 ar
     8     5    11 ar
     9     6     7 ar
    10     7     8 ar
    11     8     9 1
    12     8    10 ar
    13    10    11 ar
    14    12    15 1
    15    13    14 1
    16    14    15 1
    17    14    17 1
    18    15    16 2
    19    17    18 1
    20    18    19 ar
    21    18    24 ar
    22    19    20 ar
    23    20    21 ar
    24    21    22 1
    25    21    23 ar
    26    23    24 ar
    27     3    25 1
    28     4    26 1
    29     4    27 1
    30     6    28 1
    31     7    29 1
    32     9    30 1
    33    10    31 1
    34    11    32 1
    35    12    33 1
    36    13    34 1
    37    14    35 1
    38    17    36 1
    39    17    37 1
    40    19    38 1
    41    20    39 1
    42    22    40 1
    43    23    41 1
    44    24    42 1
@<TRIPOS>SUBSTRUCTURE
     1 YTT         1 TEMP              0 ****  ****    0 ROOT
