@<TRIPOS>MOLECULE
molecule
   22    22     1     0     0
SMALL
bcc


@<TRIPOS>ATOM
      1 C1           0.0000     0.0000     0.0000 ca         1 YTX       0.116100
      2 C2           1.3850     0.0000     0.0000 ca         1 YTX      -0.202000
      3 C3           2.0770     0.0000     1.1980 ca         1 YTX       0.024700
      4 O1           5.4060     1.6640     1.1930 o          1 YTX      -0.841300
      5 O2           3.3020     2.3390     1.1940 o          1 YTX      -0.841300
      6 C4           3.5840    -0.0000     1.1960 c3         1 YTX      -0.155100
      7 C5           4.0860     1.4200     1.1940 c          1 YTX       0.892600
      8 C6           1.3880     0.0020     2.3960 ca         1 YTX      -0.146000
      9 C7           0.0050     0.0030     2.4030 ca         1 YTX      -0.135000
     10 C8          -0.6930     0.0020     1.2070 ca         1 YTX       0.037100
     11 O3          -2.0530     0.0030     1.2110 oh         1 YTX      -0.514100
     12 O           -0.6810     0.0050    -1.1770 os         1 YTX      -0.331900
     13 C            0.0960     0.0040    -2.3760 c3         1 YTX       0.128700
     14 H1           1.9270    -0.0020    -0.9380 ha         1 YTX       0.137000
     15 H3           3.9440    -0.5120     0.3120 hc         1 YTX       0.040200
     16 H4           3.9460    -0.5100     2.0810 hc         1 YTX       0.040200
     17 H5           1.9330     0.0030     3.3330 ha         1 YTX       0.132000
     18 H6          -0.5320     0.0050     3.3440 ha         1 YTX       0.121000
     19 H7          -2.3670    -0.8500     1.4590 ho         1 YTX       0.392000
     20 H8           0.7180     0.8900    -2.4040 h1         1 YTX       0.035033
     21 H9           0.7240    -0.8790    -2.3980 h1         1 YTX       0.035033
     22 H10         -0.5650    -0.0020    -3.2340 h1         1 YTX       0.035033
@<TRIPOS>BOND
     1     5     7 1
     2     6     7 1
     3     6     3 1
     4     7     4 1
     5    13    12 1
     6     2     3 ar
     7     2     1 ar
     8     3     8 ar
     9    12     1 1
    10     1    10 ar
    11     8     9 ar
    12    10     9 ar
    13    10    11 1
    14     2    14 1
    15     6    15 1
    16     6    16 1
    17     8    17 1
    18     9    18 1
    19    11    19 1
    20    13    20 1
    21    13    21 1
    22    13    22 1
@<TRIPOS>SUBSTRUCTURE
     1 YTX         1 TEMP              0 ****  ****    0 ROOT
