@<TRIPOS>MOLECULE
molecule
   25    26     1     0     0
SMALL
bcc


@<TRIPOS>ATOM
      1 O2           0.0000     0.0000     0.0000 o          1 YTZ      -0.616800
      2 S1           1.4210     0.0000     0.0000 sy         1 YTZ       1.413200
      3 O1           2.1970     0.0000     1.1900 o          1 YTZ      -0.616800
      4 C4           1.9180    -1.4180    -0.9180 ca         1 YTZ      -0.334500
      5 C3           3.1670    -1.9740    -0.7080 ca         1 YTZ      -0.018000
      6 C2           3.5600    -3.0860    -1.4260 ca         1 YTZ      -0.167500
      7 C8           1.0570    -1.9770    -1.8450 ca         1 YTZ      -0.018000
      8 C9           1.4440    -3.0890    -2.5670 ca         1 YTZ      -0.167500
      9 C1           2.7000    -3.6470    -2.3610 ca         1 YTZ       0.229600
     10 N1           3.0940    -4.7720    -3.0890 nv         1 YTZ      -0.998200
     11 N2           1.8890     1.3330    -0.8640 nu         1 YTZ      -0.834800
     12 C5           1.3220     1.5900    -2.1030 cc         1 YTZ       0.692300
     13 S2           0.1290     0.6220    -2.8540 ss         1 YTZ      -0.193300
     14 C7           0.0960     1.7150    -4.2350 cc         1 YTZ      -0.215400
     15 C6           0.9730     2.6940    -4.0100 cd         1 YTZ       0.397200
     16 N3           1.6160     2.6010    -2.8590 nd         1 YTZ      -0.729000
     17 H1           3.8380    -1.5360     0.0210 ha         1 YTZ       0.152500
     18 H2           4.5390    -3.5190    -1.2610 ha         1 YTZ       0.145000
     19 H3           0.0780    -1.5420    -2.0060 ha         1 YTZ       0.152500
     20 H4           0.7700    -3.5250    -3.2940 ha         1 YTZ       0.145000
     21 H5           2.9040    -5.6890    -2.7360 hn         1 YTZ       0.435800
     22 H6           3.5660    -4.6610    -3.9650 hn         1 YTZ       0.435800
     23 H7           2.5640     1.9650    -0.4810 hn         1 YTZ       0.481800
     24 H8          -0.5270     1.6090    -5.1150 h4         1 YTZ       0.182000
     25 H9           1.1450     3.5000    -4.7130 h4         1 YTZ       0.047100
@<TRIPOS>BOND
     1    14    13 1
     2    14    15 2
     3    13    12 1
     4    15    16 1
     5    12    16 2
     6    12    11 1
     7     7     8 ar
     8     7     4 ar
     9     3     2 2
    10    11     2 1
    11     8     9 ar
    12     2     4 1
    13     2     1 2
    14     4     5 ar
    15     9    10 1
    16     9     6 ar
    17     5     6 ar
    18     5    17 1
    19     6    18 1
    20     7    19 1
    21     8    20 1
    22    10    21 1
    23    10    22 1
    24    11    23 1
    25    14    24 1
    26    15    25 1
@<TRIPOS>SUBSTRUCTURE
     1 YTZ         1 TEMP              0 ****  ****    0 ROOT
