@<TRIPOS>MOLECULE
YTZ
   25    26     1     0     0
SMALL
bcc


@<TRIPOS>ATOM
      1 O2           0.0000     0.0000     0.0000 o          1 YTZ      -0.570300
      2 S1           1.4210     0.0000     0.0000 sy         1 YTZ       1.031200
      3 O1           2.1970     0.0000     1.1900 o          1 YTZ      -0.570300
      4 C4           1.9180    -1.4180    -0.9180 ca         1 YTZ      -0.180500
      5 C3           3.1670    -1.9740    -0.7080 ca         1 YTZ       0.011000
      6 C2           3.5600    -3.0860    -1.4260 ca         1 YTZ      -0.147000
      7 C8           1.0570    -1.9770    -1.8450 ca         1 YTZ       0.011000
      8 C9           1.4440    -3.0890    -2.5670 ca         1 YTZ      -0.147000
      9 C1           2.7000    -3.6470    -2.3610 ca         1 YTZ       0.093600
     10 N1           3.0940    -4.7720    -3.0890 nv         1 YTZ      -0.570200
     11 N2           1.8890     1.3330    -0.8640 nu         1 YTZ      -0.451800
     12 C5           1.3220     1.5900    -2.1030 cc         1 YTZ       0.602300
     13 S2           0.1290     0.6220    -2.8540 ss         1 YTZ      -0.289300
     14 C7           0.0960     1.7150    -4.2350 cc         1 YTZ      -0.154400
     15 C6           0.9730     2.6940    -4.0100 cd         1 YTZ       0.393200
     16 N3           1.6160     2.6010    -2.8590 nd         1 YTZ      -0.634000
     17 H1           3.8380    -1.5360     0.0210 ha         1 YTZ       0.132500
     18 H2           4.5390    -3.5190    -1.2610 ha         1 YTZ       0.116000
     19 H3           0.0780    -1.5420    -2.0060 ha         1 YTZ       0.132500
     20 H4           0.7700    -3.5250    -3.2940 ha         1 YTZ       0.116000
     21 H5           2.9040    -5.6890    -2.7360 hn         1 YTZ       0.280300
     22 H6           3.5660    -4.6610    -3.9650 hn         1 YTZ       0.280300
     23 H7           2.5640     1.9650    -0.4810 hn         1 YTZ       0.356800
     24 H8          -0.5270     1.6090    -5.1150 h4         1 YTZ       0.160000
     25 H9           1.1450     3.5000    -4.7130 h4         1 YTZ      -0.000900
@<TRIPOS>BOND
     1     1     2 2   
     2     2     3 2   
     3     2     4 1   
     4     2    11 1   
     5     4     5 ar  
     6     4     7 ar  
     7     5     6 ar  
     8     5    17 1   
     9     6     9 ar  
    10     6    18 1   
    11     7     8 ar  
    12     7    19 1   
    13     8     9 ar  
    14     8    20 1   
    15     9    10 1   
    16    10    21 1   
    17    10    22 1   
    18    11    12 1   
    19    11    23 1   
    20    12    13 1   
    21    12    16 2   
    22    13    14 1   
    23    14    15 2   
    24    14    24 1   
    25    15    16 1   
    26    15    25 1   
@<TRIPOS>SUBSTRUCTURE
     1 YTZ         1 TEMP              0 ****  ****    0 ROOT
