@<TRIPOS>MOLECULE
YU7
   38    40     1     0     0
SMALL
bcc


@<TRIPOS>ATOM
      1 Cl           0.0000     0.0000     0.0000 cl         1 YU7      -0.012400
      2 C10          1.7360     0.0000     0.0000 ca         1 YU7      -0.016600
      3 C9           2.4280     0.0000     1.1980 ca         1 YU7      -0.092000
      4 C8           3.8090    -0.0000     1.1970 ca         1 YU7      -0.076000
      5 C7           4.5010     0.0000    -0.0000 ca         1 YU7      -0.097000
      6 C6           3.8100     0.0010    -1.1980 ca         1 YU7      -0.073000
      7 C5           2.4270    -0.0050    -1.1980 ca         1 YU7      -0.128300
      8 C4           1.6740    -0.0120    -2.5030 c3         1 YU7      -0.001400
      9 N2           1.3260     1.3620    -2.8730 na         1 YU7       0.466900
     10 C3           2.0990     2.1750    -3.6180 cc         1 YU7      -0.302300
     11 C11          0.1730     1.9930    -2.5150 cc         1 YU7      -0.336300
     12 C12          0.1880     3.2490    -3.0300 cd         1 YU7      -0.020000
     13 C2           1.4610     3.3750    -3.7620 cd         1 YU7      -0.223600
     14 C1           1.9460     4.5520    -4.5000 c          1 YU7       0.632700
     15 N1           3.1380     4.5120    -5.1250 ns         1 YU7      -0.067400
     16 O2           3.6040     5.6450    -5.8350 oh         1 YU7      -0.438100
     17 O1           1.2690     5.5620    -4.5440 o          1 YU7      -0.622100
     18 C13         -0.8650     4.2830    -2.8880 ca         1 YU7       0.001000
     19 C18         -2.1950     3.9710    -3.1650 ca         1 YU7      -0.075500
     20 C17         -3.1700     4.9370    -3.0310 ca         1 YU7      -0.108000
     21 C16         -2.8310     6.2150    -2.6230 ca         1 YU7      -0.104000
     22 C15         -1.5130     6.5310    -2.3470 ca         1 YU7      -0.108000
     23 C14         -0.5300     5.5710    -2.4720 ca         1 YU7      -0.075500
     24 H9           1.8860    -0.0000     2.1370 ha         1 YU7       0.119000
     25 H8           4.3510    -0.0000     2.1350 ha         1 YU7       0.109000
     26 H7           5.5840     0.0030    -0.0000 ha         1 YU7       0.108000
     27 H6           4.3510    -0.0010    -2.1360 ha         1 YU7       0.106000
     28 H41C         2.2950    -0.4480    -3.2760 h1         1 YU7       0.044200
     29 H42C         0.7690    -0.5970    -2.3950 h1         1 YU7       0.044200
     30 H3           3.0670     1.9210    -4.0330 h4         1 YU7       0.138000
     31 H11         -0.6220     1.5650    -1.9170 h4         1 YU7       0.161000
     32 H1           3.6880     3.6760    -5.1010 hn         1 YU7       0.151500
     33 H18         -2.4620     2.9710    -3.4850 ha         1 YU7       0.107500
     34 H14          0.5020     5.8200    -2.2560 ha         1 YU7       0.107500
     35 H17         -4.2040     4.6950    -3.2460 ha         1 YU7       0.098500
     36 H16         -3.6000     6.9710    -2.5210 ha         1 YU7       0.097000
     37 H15         -1.2540     7.5330    -2.0260 ha         1 YU7       0.098500
     38 H2           4.4750     5.4780    -6.1560 ho         1 YU7       0.387000
@<TRIPOS>BOND
     1     1     2 1   
     2     2     3 ar  
     3     2     7 ar  
     4     3     4 ar  
     5     3    24 1   
     6     4     5 ar  
     7     4    25 1   
     8     5     6 ar  
     9     5    26 1   
    10     6     7 ar  
    11     6    27 1   
    12     7     8 1   
    13     8     9 1   
    14     8    28 1   
    15     8    29 1   
    16     9    10 1   
    17     9    11 1   
    18    10    13 2   
    19    10    30 1   
    20    11    12 2   
    21    11    31 1   
    22    12    13 1   
    23    12    18 1   
    24    13    14 1   
    25    14    15 1   
    26    14    17 2   
    27    15    16 1   
    28    15    32 1   
    29    16    38 1   
    30    18    19 ar  
    31    18    23 ar  
    32    19    20 ar  
    33    19    33 1   
    34    20    21 ar  
    35    20    35 1   
    36    21    22 ar  
    37    21    36 1   
    38    22    23 ar  
    39    22    37 1   
    40    23    34 1   
@<TRIPOS>SUBSTRUCTURE
     1 YU7         1 TEMP              0 ****  ****    0 ROOT
