@<TRIPOS>MOLECULE
molecule
   38    40     1     0     0
SMALL
bcc


@<TRIPOS>ATOM
      1 Cl           0.0000     0.0000     0.0000 cl         1 YU7      -0.102400
      2 C10          1.7360     0.0000     0.0000 ca         1 YU7       0.048400
      3 C9           2.4280     0.0000     1.1980 ca         1 YU7      -0.117000
      4 C8           3.8090    -0.0000     1.1970 ca         1 YU7      -0.107000
      5 C7           4.5010     0.0000    -0.0000 ca         1 YU7      -0.125000
      6 C6           3.8100     0.0010    -1.1980 ca         1 YU7      -0.103000
      7 C5           2.4270    -0.0050    -1.1980 ca         1 YU7      -0.116300
      8 C4           1.6740    -0.0120    -2.5030 c3         1 YU7       0.086600
      9 N2           1.3260     1.3620    -2.8730 na         1 YU7      -0.035100
     10 C3           2.0990     2.1750    -3.6180 cc         1 YU7      -0.127300
     11 C11          0.1730     1.9930    -2.5150 cc         1 YU7      -0.146300
     12 C12          0.1880     3.2490    -3.0300 cd         1 YU7      -0.053000
     13 C2           1.4610     3.3750    -3.7620 cd         1 YU7      -0.214600
     14 C1           1.9460     4.5520    -4.5000 c          1 YU7       0.716700
     15 N1           3.1380     4.5120    -5.1250 ns         1 YU7      -0.476400
     16 O2           3.6040     5.6450    -5.8350 oh         1 YU7      -0.361100
     17 O1           1.2690     5.5620    -4.5440 o          1 YU7      -0.571100
     18 C13         -0.8650     4.2830    -2.8880 ca         1 YU7      -0.009000
     19 C18         -2.1950     3.9710    -3.1650 ca         1 YU7      -0.097000
     20 C17         -3.1700     4.9370    -3.0310 ca         1 YU7      -0.134500
     21 C16         -2.8310     6.2150    -2.6230 ca         1 YU7      -0.127000
     22 C15         -1.5130     6.5310    -2.3470 ca         1 YU7      -0.134500
     23 C14         -0.5300     5.5710    -2.4720 ca         1 YU7      -0.097000
     24 H9           1.8860    -0.0000     2.1370 ha         1 YU7       0.150000
     25 H8           4.3510    -0.0000     2.1350 ha         1 YU7       0.141000
     26 H7           5.5840     0.0030    -0.0000 ha         1 YU7       0.139000
     27 H6           4.3510    -0.0010    -2.1360 ha         1 YU7       0.134000
     28 H41C         2.2950    -0.4480    -3.2760 h1         1 YU7       0.074700
     29 H42C         0.7690    -0.5970    -2.3950 h1         1 YU7       0.074700
     30 H3           3.0670     1.9210    -4.0330 h4         1 YU7       0.157000
     31 H11         -0.6220     1.5650    -1.9170 h4         1 YU7       0.183000
     32 H1           3.6880     3.6760    -5.1010 hn         1 YU7       0.311500
     33 H18         -2.4620     2.9710    -3.4850 ha         1 YU7       0.133500
     34 H14          0.5020     5.8200    -2.2560 ha         1 YU7       0.133500
     35 H17         -4.2040     4.6950    -3.2460 ha         1 YU7       0.126500
     36 H16         -3.6000     6.9710    -2.5210 ha         1 YU7       0.123000
     37 H15         -1.2540     7.5330    -2.0260 ha         1 YU7       0.126500
     38 H2           4.4750     5.4780    -6.1560 ho         1 YU7       0.394000
@<TRIPOS>BOND
     1     1     2 1
     2     2     3 ar
     3     2     7 ar
     4     3     4 ar
     5     4     5 ar
     6     5     6 ar
     7     6     7 ar
     8     7     8 1
     9     8     9 1
    10     9    10 1
    11     9    11 1
    12    10    13 2
    13    11    12 2
    14    12    13 1
    15    12    18 1
    16    13    14 1
    17    14    15 1
    18    14    17 2
    19    15    16 1
    20    18    19 ar
    21    18    23 ar
    22    19    20 ar
    23    20    21 ar
    24    21    22 ar
    25    22    23 ar
    26    16    38 1
    27     3    24 1
    28     4    25 1
    29     5    26 1
    30     6    27 1
    31     8    28 1
    32     8    29 1
    33    10    30 1
    34    11    31 1
    35    15    32 1
    36    19    33 1
    37    23    34 1
    38    20    35 1
    39    21    36 1
    40    22    37 1
@<TRIPOS>SUBSTRUCTURE
     1 YU7         1 TEMP              0 ****  ****    0 ROOT
