@<TRIPOS>MOLECULE
YUG
   24    25     1     0     0
SMALL
bcc


@<TRIPOS>ATOM
      1 O           0.2660    0.3230   -0.2090 os        1 YUG     -0.201200
      2 C1          1.6380    0.1420   -0.0170 ca        1 YUG      0.176100
      3 C2          2.0560   -0.3160    1.2440 ca        1 YUG     -0.071900
      4 C3          3.4500   -0.3960    1.4750 ca        1 YUG      0.203100
      5 O3          3.8410   -0.8350    2.7120 oh        1 YUG     -0.473100
      6 C4          4.3750   -0.0430    0.4710 ca        1 YUG     -0.141900
      7 BR3        -3.4210   -0.5910   -4.7540 br        1 YUG     -0.118400
      8 C5          3.9120    0.4010   -0.7700 ca        1 YUG     -0.029000
      9 C6          2.5510    0.4980   -1.0190 ca        1 YUG     -0.205000
     10 C1'        -0.1860    0.1250   -1.4960 ce        1 YUG      0.078000
     11 C2'        -0.4370   -1.2360   -2.0330 ce        1 YUG     -0.059300
     12 BR2         0.8210   -0.7990    2.5700 br        1 YUG     -0.030100
     13 C3'        -1.6030   -1.3890   -2.7100 c2        1 YUG     -0.104200
     14 C4'        -2.5090   -0.2360   -3.0790 c3        1 YUG      0.045100
     15 BR1         0.7060   -2.6560   -1.6710 br        1 YUG     -0.024700
     16 C5'        -1.6840    1.0210   -3.1960 c2        1 YUG     -0.154300
     17 C6'        -0.7420    1.0630   -2.2680 c1        1 YUG     -0.035800
     18 H1          4.8140   -0.8430    2.7450 ho        1 YUG      0.438000
     19 H2          2.1820    0.8560   -1.9920 ha        1 YUG      0.162000
     20 H3          4.6270    0.6820   -1.5600 ha        1 YUG      0.156000
     21 H4         -1.9640   -2.3870   -3.0110 ha        1 YUG      0.169000
     22 H5         -3.3220   -0.1560   -2.3100 h1        1 YUG      0.117700
     23 H6         -1.8270    1.7200   -4.0260 ha        1 YUG      0.178000
     24 BR4         6.2260   -0.1480    0.7480 br        1 YUG     -0.076100
@<TRIPOS>BOND
     1    1    2 1   
     2    1   10 1   
     3    2    3 ar  
     4    2    9 ar  
     5    3    4 ar  
     6    3   12 1   
     7    4    5 1   
     8    4    6 ar  
     9    5   18 1   
    10    6    8 ar  
    11    6   24 1   
    12    7   14 1   
    13    8    9 ar  
    14    8   20 1   
    15    9   19 1   
    16   10   11 1   
    17   10   17 2   
    18   11   13 2   
    19   11   15 1   
    20   13   14 1   
    21   13   21 1   
    22   14   16 1   
    23   14   22 1   
    24   16   17 2   
    25   16   23 1   
@<TRIPOS>SUBSTRUCTURE
     1 YUG         1 TEMP              0 ****  ****    0 ROOT
