@<TRIPOS>MOLECULE
molecule
   24    25     1     0     0
SMALL
bcc


@<TRIPOS>ATOM
      1 O            0.0000     0.0000     0.0000 os         1 YUG      -0.224200
      2 C1           1.3600     0.0000     0.0000 ca         1 YUG       0.182100
      3 C2           2.0530     0.0000     1.2010 ca         1 YUG      -0.074900
      4 C3           3.4410    -0.0010     1.1970 ca         1 YUG       0.186100
      5 O3           4.1230    -0.0010     2.3730 oh         1 YUG      -0.497100
      6 C4           4.1300    -0.0010    -0.0070 ca         1 YUG      -0.076900
      7 Br3         -2.8260    -0.5160    -5.2870 br         1 YUG      -0.072100
      8 C5           3.4350    -0.0010    -1.2020 ca         1 YUG      -0.044000
      9 C6           2.0540    -0.0060    -1.2020 ca         1 YUG      -0.214000
     10 C1'         -0.6380    -0.1170    -1.1940 ca         1 YUG       0.124100
     11 C2'         -0.8940    -1.3740    -1.7260 ca         1 YUG      -0.034900
     12 Br2          1.1100     0.0020     2.8400 br         1 YUG      -0.048100
     13 C3'         -1.5440    -1.4900    -2.9390 ca         1 YUG      -0.072000
     14 C4'         -1.9380    -0.3540    -3.6260 ca         1 YUG      -0.020900
     15 Br1         -0.3550    -2.9250    -0.7880 br         1 YUG      -0.050100
     16 C5'         -1.6830     0.8990    -3.0970 ca         1 YUG      -0.086000
     17 C6'         -1.0390     1.0200    -1.8810 ca         1 YUG      -0.130000
     18 H1           4.2520     0.8880     2.6620 ho         1 YUG       0.435000
     19 H2           3.9750    -0.0060    -2.1420 ha         1 YUG       0.154000
     20 H3           1.5120    -0.0060    -2.1400 ha         1 YUG       0.154000
     21 H4          -1.7440    -2.4700    -3.3540 ha         1 YUG       0.164000
     22 H5          -1.9960     1.7860    -3.6340 ha         1 YUG       0.155000
     23 H6          -0.8390     2.0010    -1.4680 ha         1 YUG       0.159000
     24 Br4          6.0220    -0.0020    -0.0130 br         1 YUG      -0.069100
@<TRIPOS>BOND
     1     7    14 1
     2    14    16 ar
     3    14    13 ar
     4    16    17 ar
     5    13    11 ar
     6    17    10 ar
     7    11    10 ar
     8    11    15 1
     9    10     1 1
    10     9     8 ar
    11     9     2 ar
    12     8     6 ar
    13     1     2 1
    14     2     3 ar
    15     6    24 1
    16     6     4 ar
    17     3     4 ar
    18     3    12 1
    19     4     5 1
    20     5    18 1
    21     8    19 1
    22     9    20 1
    23    13    21 1
    24    16    22 1
    25    17    23 1
@<TRIPOS>SUBSTRUCTURE
     1 YUG         1 TEMP              0 ****  ****    0 ROOT
