@<TRIPOS>MOLECULE
molecule
   59    63     1     0     0
SMALL
bcc


@<TRIPOS>ATOM
      1 O2           0.0000     0.0000     0.0000 o          1 YUI      -0.621500
      2 C25          1.2180     0.0000     0.0000 c          1 YUI       0.708700
      3 C1           1.9320     0.0000     1.2230 cc         1 YUI      -0.281400
      4 C            1.1950    -0.0010     2.5370 c3         1 YUI      -0.012900
      5 N3           1.8990    -0.0040    -1.1630 ns         1 YUI      -0.560500
      6 C24          3.2450    -0.0050    -1.1620 c          1 YUI       0.808500
      7 O1           3.8460    -0.0090    -2.2190 o          1 YUI      -0.654500
      8 N            3.9350     0.0020    -0.0070 n          1 YUI      -0.360000
      9 C2           3.2820    -0.0000     1.1950 cd         1 YUI       0.030600
     10 C3           5.4000     0.0020    -0.0360 c3         1 YUI       0.120700
     11 C23          5.8970     1.2490    -0.7750 c3         1 YUI      -0.101900
     12 C22          7.4240     1.2130    -0.8550 c3         1 YUI       0.166800
     13 N1           7.8490    -0.0000    -1.5660 n3         1 YUI      -0.721600
     14 C5           7.4250    -1.2110    -0.8510 c3         1 YUI       0.166800
     15 C4           5.8970    -1.2470    -0.7700 c3         1 YUI      -0.101900
     16 C6           9.3020    -0.0010    -1.7840 c3         1 YUI       0.115500
     17 C7           9.6690    -1.1240    -2.7200 ca         1 YUI       0.479600
     18 N2           9.8630    -2.3250    -2.2300 nb         1 YUI      -0.719000
     19 C21         10.1900    -3.3580    -3.0140 ca         1 YUI       0.449600
     20 C20         10.3930    -4.6400    -2.4750 ca         1 YUI      -0.178300
     21 C19         10.7250    -5.6740    -3.2960 ca         1 YUI      -0.106000
     22 C18         10.8670    -5.4840    -4.6680 ca         1 YUI      -0.142000
     23 C17         10.6780    -4.2560    -5.2270 ca         1 YUI      -0.088000
     24 C16         10.3350    -3.1690    -4.4090 ca         1 YUI      -0.170300
     25 C9          10.1300    -1.8780    -4.9500 ca         1 YUI       0.181100
     26 C8           9.7880    -0.8590    -4.0800 ca         1 YUI      -0.326300
     27 O           10.2570    -1.6490    -6.2800 os         1 YUI      -0.237200
     28 C10         10.0460    -0.3850    -6.7310 ca         1 YUI       0.100100
     29 C15         11.1010     0.5110    -6.8090 ca         1 YUI      -0.133000
     30 C14         10.8830     1.7970    -7.2700 ca         1 YUI       0.033400
     31 Cl          12.2030     2.9200    -7.3680 cl         1 YUI      -0.098400
     32 C13          9.6130     2.1880    -7.6550 ca         1 YUI      -0.119000
     33 C12          8.5600     1.2960    -7.5780 ca         1 YUI      -0.109000
     34 C11          8.7730     0.0090    -7.1230 ca         1 YUI      -0.127000
     35 H2           0.5710     0.8820     2.6020 hc         1 YUI       0.047367
     36 H1           0.5760    -0.8870     2.6030 hc         1 YUI       0.047367
     37 H3           1.9100     0.0010     3.3520 hc         1 YUI       0.047367
     38 H            1.4010    -0.0060    -2.0310 hn         1 YUI       0.362500
     39 H4           3.8450     0.0020     2.1200 h4         1 YUI       0.163000
     40 H5           5.7870     0.0030     0.9750 h1         1 YUI       0.060700
     41 H24          5.5850     2.1350    -0.2350 hc         1 YUI       0.072950
     42 H23          5.4830     1.2640    -1.7760 hc         1 YUI       0.072950
     43 H21          7.7760     2.0860    -1.3910 h1         1 YUI       0.042200
     44 H22          7.8370     1.2060     0.1460 h1         1 YUI       0.042200
     45 H9           7.7770    -2.0860    -1.3850 h1         1 YUI       0.042200
     46 H8           7.8380    -1.2010     0.1500 h1         1 YUI       0.042200
     47 H7           5.5860    -2.1310    -0.2280 hc         1 YUI       0.072950
     48 H6           5.4830    -1.2650    -1.7710 hc         1 YUI       0.072950
     49 H11          9.6020     0.9450    -2.2200 h1         1 YUI       0.049700
     50 H10          9.8100    -0.1400    -0.8370 h1         1 YUI       0.049700
     51 H20         10.2870    -4.8040    -1.4090 ha         1 YUI       0.148000
     52 H19         10.8810    -6.6600    -2.8750 ha         1 YUI       0.133000
     53 H18         11.1320    -6.3240    -5.2990 ha         1 YUI       0.133000
     54 H17         10.7910    -4.1200    -6.2950 ha         1 YUI       0.146000
     55 H12          9.7100     0.1590    -4.4420 ha         1 YUI       0.154000
     56 H16         12.1050     0.1890    -6.5590 ha         1 YUI       0.159000
     57 H15          9.4440     3.1960    -8.0140 ha         1 YUI       0.149000
     58 H14          7.5670     1.6050    -7.8820 ha         1 YUI       0.146000
     59 H13          7.9470    -0.6890    -7.0630 ha         1 YUI       0.154000
@<TRIPOS>BOND
     1     1     2 2
     2     2     5 1
     3     2     3 1
     4     5     6 1
     5     4     3 1
     6     3     9 2
     7     6     7 2
     8     6     8 1
     9     9     8 1
    10     8    10 1
    11    15    10 1
    12    15    14 1
    13    10    11 1
    14    14    13 1
    15    11    12 1
    16    13    12 1
    17    13    16 1
    18    16    17 1
    19    17    18 ar
    20    17    26 ar
    21    18    19 ar
    22    26    25 ar
    23    19    20 ar
    24    19    24 ar
    25    20    21 ar
    26    25    24 ar
    27    25    27 1
    28    34    33 ar
    29    34    28 ar
    30    33    32 ar
    31    24    23 ar
    32    27    28 1
    33    28    29 ar
    34    21    22 ar
    35    32    30 ar
    36    23    22 ar
    37    29    30 ar
    38    30    31 1
    39     4    35 1
    40     4    36 1
    41     4    37 1
    42     5    38 1
    43     9    39 1
    44    10    40 1
    45    11    41 1
    46    11    42 1
    47    12    43 1
    48    12    44 1
    49    14    45 1
    50    14    46 1
    51    15    47 1
    52    15    48 1
    53    16    49 1
    54    16    50 1
    55    20    51 1
    56    21    52 1
    57    22    53 1
    58    23    54 1
    59    26    55 1
    60    29    56 1
    61    32    57 1
    62    33    58 1
    63    34    59 1
@<TRIPOS>SUBSTRUCTURE
     1 YUI         1 TEMP              0 ****  ****    0 ROOT
