@<TRIPOS>MOLECULE
YUI
   59    63     1     0     0
SMALL
bcc


@<TRIPOS>ATOM
      1 O2           0.0000     0.0000     0.0000 o          1 YUI      -0.660500
      2 C25          1.2180     0.0000     0.0000 c          1 YUI       0.619700
      3 C1           1.9320     0.0000     1.2230 cc         1 YUI      -0.282400
      4 C            1.1950    -0.0010     2.5370 c3         1 YUI       0.103100
      5 N3           1.8990    -0.0040    -1.1630 ns         1 YUI      -0.127500
      6 C24          3.2450    -0.0050    -1.1620 c          1 YUI       0.585500
      7 O1           3.8460    -0.0090    -2.2190 o          1 YUI      -0.702500
      8 N            3.9350     0.0020    -0.0070 n          1 YUI       0.059000
      9 C2           3.2820    -0.0000     1.1950 cd         1 YUI      -0.101400
     10 C3           5.4000     0.0020    -0.0360 c3         1 YUI       0.018700
     11 C23          5.8970     1.2490    -0.7750 c3         1 YUI      -0.062400
     12 C22          7.4240     1.2130    -0.8550 c3         1 YUI       0.156300
     13 N1           7.8490    -0.0000    -1.5660 n3         1 YUI      -0.527600
     14 C5           7.4250    -1.2110    -0.8510 c3         1 YUI       0.156300
     15 C4           5.8970    -1.2470    -0.7700 c3         1 YUI      -0.062400
     16 C6           9.3020    -0.0010    -1.7840 c3         1 YUI       0.103500
     17 C7           9.6690    -1.1240    -2.7200 ca         1 YUI       0.427600
     18 N2           9.8630    -2.3250    -2.2300 nb         1 YUI      -0.606000
     19 C21         10.1900    -3.3580    -3.0140 ca         1 YUI       0.405600
     20 C20         10.3930    -4.6400    -2.4750 ca         1 YUI      -0.156300
     21 C19         10.7250    -5.6740    -3.2960 ca         1 YUI      -0.080000
     22 C18         10.8670    -5.4840    -4.6680 ca         1 YUI      -0.113000
     23 C17         10.6780    -4.2560    -5.2270 ca         1 YUI      -0.062000
     24 C16         10.3350    -3.1690    -4.4090 ca         1 YUI      -0.172300
     25 C9          10.1300    -1.8780    -4.9500 ca         1 YUI       0.191100
     26 C8           9.7880    -0.8590    -4.0800 ca         1 YUI      -0.313300
     27 O           10.2570    -1.6490    -6.2800 os         1 YUI      -0.211200
     28 C10         10.0460    -0.3850    -6.7310 ca         1 YUI       0.105100
     29 C15         11.1010     0.5110    -6.8090 ca         1 YUI      -0.119000
     30 C14         10.8830     1.7970    -7.2700 ca         1 YUI      -0.026600
     31 Cl          12.2030     2.9200    -7.3680 cl         1 YUI      -0.017400
     32 C13          9.6130     2.1880    -7.6550 ca         1 YUI      -0.100000
     33 C12          8.5600     1.2960    -7.5780 ca         1 YUI      -0.074000
     34 C11          8.7730     0.0090    -7.1230 ca         1 YUI      -0.108000
     35 H2           0.5710     0.8820     2.6020 hc         1 YUI       0.009700
     36 H1           0.5760    -0.8870     2.6030 hc         1 YUI       0.009700
     37 H3           1.9100     0.0010     3.3520 hc         1 YUI       0.009700
     38 H            1.4010    -0.0060    -2.0310 hn         1 YUI       0.206500
     39 H4           3.8450     0.0020     2.1200 h4         1 YUI       0.136000
     40 H5           5.7870     0.0030     0.9750 h1         1 YUI       0.036700
     41 H24          5.5850     2.1350    -0.2350 hc         1 YUI       0.046200
     42 H23          5.4830     1.2640    -1.7760 hc         1 YUI       0.046200
     43 H21          7.7760     2.0860    -1.3910 h1         1 YUI       0.015450
     44 H22          7.8370     1.2060     0.1460 h1         1 YUI       0.015450
     45 H9           7.7770    -2.0860    -1.3850 h1         1 YUI       0.015450
     46 H8           7.8380    -1.2010     0.1500 h1         1 YUI       0.015450
     47 H7           5.5860    -2.1310    -0.2280 hc         1 YUI       0.046200
     48 H6           5.4830    -1.2650    -1.7710 hc         1 YUI       0.046200
     49 H11          9.6020     0.9450    -2.2200 h1         1 YUI       0.018200
     50 H10          9.8100    -0.1400    -0.8370 h1         1 YUI       0.018200
     51 H20         10.2870    -4.8040    -1.4090 ha         1 YUI       0.117000
     52 H19         10.8810    -6.6600    -2.8750 ha         1 YUI       0.102000
     53 H18         11.1320    -6.3240    -5.2990 ha         1 YUI       0.105000
     54 H17         10.7910    -4.1200    -6.2950 ha         1 YUI       0.116000
     55 H12          9.7100     0.1590    -4.4420 ha         1 YUI       0.138000
     56 H16         12.1050     0.1890    -6.5590 ha         1 YUI       0.128000
     57 H15          9.4440     3.1960    -8.0140 ha         1 YUI       0.118000
     58 H14          7.5670     1.6050    -7.8820 ha         1 YUI       0.112000
     59 H13          7.9470    -0.6890    -7.0630 ha         1 YUI       0.123000
@<TRIPOS>BOND
     1     1     2 2   
     2     2     3 1   
     3     2     5 1   
     4     3     4 1   
     5     3     9 2   
     6     4    35 1   
     7     4    36 1   
     8     4    37 1   
     9     5     6 1   
    10     5    38 1   
    11     6     7 2   
    12     6     8 1   
    13     8     9 1   
    14     8    10 1   
    15     9    39 1   
    16    10    11 1   
    17    10    15 1   
    18    10    40 1   
    19    11    12 1   
    20    11    41 1   
    21    11    42 1   
    22    12    13 1   
    23    12    43 1   
    24    12    44 1   
    25    13    14 1   
    26    13    16 1   
    27    14    15 1   
    28    14    45 1   
    29    14    46 1   
    30    15    47 1   
    31    15    48 1   
    32    16    17 1   
    33    16    49 1   
    34    16    50 1   
    35    17    18 ar  
    36    17    26 ar  
    37    18    19 ar  
    38    19    20 ar  
    39    19    24 ar  
    40    20    21 ar  
    41    20    51 1   
    42    21    22 ar  
    43    21    52 1   
    44    22    23 ar  
    45    22    53 1   
    46    23    24 ar  
    47    23    54 1   
    48    24    25 ar  
    49    25    26 ar  
    50    25    27 1   
    51    26    55 1   
    52    27    28 1   
    53    28    29 ar  
    54    28    34 ar  
    55    29    30 ar  
    56    29    56 1   
    57    30    31 1   
    58    30    32 ar  
    59    32    33 ar  
    60    32    57 1   
    61    33    34 ar  
    62    33    58 1   
    63    34    59 1   
@<TRIPOS>SUBSTRUCTURE
     1 YUI         1 TEMP              0 ****  ****    0 ROOT
