@<TRIPOS>MOLECULE
YUK
   68    73     1     0     0
SMALL
bcc


@<TRIPOS>ATOM
      1 O30          0.0000     0.0000     0.0000 o          1 YUK      -0.527100
      2 C28          1.2160     0.0000     0.0000 c          1 YUK       0.355700
      3 N29          1.8890     0.0000     1.1680 nz         1 YUK       0.211600
      4 C25          1.9530    -0.0040    -1.2760 ca         1 YUK      -0.331600
      5 C24          1.2570    -0.1260    -2.4900 ca         1 YUK       0.163600
      6 N31         -0.1270    -0.2420    -2.4930 nu         1 YUK      -0.337600
      7 C32         -0.8380    -0.4860    -3.7500 c3         1 YUK       0.098500
      8 C37         -2.2730     0.0300    -3.6320 c3         1 YUK      -0.031400
      9 C36         -3.0170    -0.2260    -4.9450 c3         1 YUK      -0.039400
     10 C35         -3.0380    -1.7270    -5.2360 c3         1 YUK       0.191100
     11 O38         -3.7320    -1.9650    -6.4620 oh         1 YUK      -0.574800
     12 C34         -1.6020    -2.2430    -5.3540 c3         1 YUK      -0.039400
     13 C33         -0.8590    -1.9890    -4.0420 c3         1 YUK      -0.031400
     14 C23          1.9610    -0.1300    -3.6860 ca         1 YUK      -0.169000
     15 C22          3.3480    -0.0120    -3.6750 cp         1 YUK      -0.001500
     16 C27          4.0320     0.1080    -2.4610 ca         1 YUK      -0.131000
     17 C26          3.3460     0.1170    -1.2820 ca         1 YUK      -0.054000
     18 C21          4.1010    -0.0160    -4.9490 cp         1 YUK       0.396800
     19 N20          3.6760     0.7030    -5.9740 nb         1 YUK      -0.542000
     20 C19          4.3100     0.7360    -7.1340 ca         1 YUK       0.400200
     21 C18          5.4530     0.0230    -7.3540 ca         1 YUK      -0.187300
     22 C13          5.9700    -0.7670    -6.3140 ca         1 YUK      -0.017000
     23 C14          5.2810    -0.7850    -5.0760 ca         1 YUK      -0.118300
     24 C12          7.1460    -1.5280    -6.4660 ca         1 YUK      -0.146200
     25 C17          7.5990    -2.2830    -5.4050 ca         1 YUK      -0.069000
     26 C16          6.9110    -2.2970    -4.1950 ca         1 YUK      -0.070000
     27 C15          5.7780    -1.5610    -4.0200 ca         1 YUK      -0.113000
     28 N10          7.8430    -1.5200    -7.6780 na         1 YUK       0.393000
     29 C9           7.3120    -1.7170    -8.9150 cc         1 YUK       0.204400
     30 N8           8.2670    -1.6370    -9.8000 nd         1 YUK      -0.584000
     31 C7           9.4350    -1.3890    -9.1740 cd         1 YUK       0.378800
     32 C11          9.1850    -1.3060    -7.8410 cc         1 YUK      -0.432600
     33 C4          10.7580    -1.2280    -9.8260 ca         1 YUK      -0.116500
     34 C3          10.8720    -1.3310   -11.2120 ca         1 YUK      -0.087000
     35 C2          12.1050    -1.1790   -11.8130 ca         1 YUK      -0.101500
     36 C1          13.2260    -0.9270   -11.0440 ca         1 YUK      -0.094000
     37 C6          13.1190    -0.8230    -9.6680 ca         1 YUK      -0.101500
     38 C5          11.8900    -0.9670    -9.0570 ca         1 YUK      -0.087000
     39 H1           2.4280     0.8400     1.2420 hn         1 YUK       0.240800
     40 H2           2.5000    -0.7920     1.2010 hn         1 YUK       0.240800
     41 H3          -0.6400    -0.1220    -1.6420 hn         1 YUK       0.343800
     42 H4          -0.3370     0.0290    -4.5600 h1         1 YUK       0.059700
     43 H5          -2.7770    -0.4900    -2.8260 hc         1 YUK       0.022200
     44 H6          -2.2570     1.0940    -3.4280 hc         1 YUK       0.022200
     45 H7          -2.5100     0.2900    -5.7510 hc         1 YUK       0.033200
     46 H8          -4.0340     0.1380    -4.8590 hc         1 YUK       0.033200
     47 H9          -3.5390    -2.2430    -4.4260 h1         1 YUK       0.000700
     48 H10         -4.5100    -2.4680    -6.2900 ho         1 YUK       0.397000
     49 H11         -1.0980    -1.7230    -6.1590 hc         1 YUK       0.033200
     50 H12         -1.6180    -3.3070    -5.5580 hc         1 YUK       0.033200
     51 H13          0.1580    -2.3530    -4.1270 hc         1 YUK       0.022200
     52 H14         -1.3660    -2.5040    -3.2350 hc         1 YUK       0.022200
     53 H15          1.4310    -0.2230    -4.6270 ha         1 YUK       0.156000
     54 H16          5.1110     0.2010    -2.4580 ha         1 YUK       0.140000
     55 H17          3.8840     0.2110    -0.3460 ha         1 YUK       0.077000
     56 H18          3.9090     1.3460    -7.9350 h4         1 YUK      -0.004900
     57 H19          5.9540     0.0680    -8.3140 ha         1 YUK       0.145000
     58 H20          8.4980    -2.8780    -5.5160 ha         1 YUK       0.127000
     59 H21          7.2880    -2.8980    -3.3760 ha         1 YUK       0.112000
     60 H22          5.2560    -1.5850    -3.0710 ha         1 YUK       0.118000
     61 H23          6.2680    -1.9090    -9.1300 h5         1 YUK       0.030100
     62 H24          9.9090    -1.1160    -7.0580 h4         1 YUK       0.163000
     63 H25          9.9950    -1.5290   -11.8160 ha         1 YUK       0.110500
     64 H26         12.1950    -1.2590   -12.8900 ha         1 YUK       0.104500
     65 H27         14.1920    -0.8110   -11.5200 ha         1 YUK       0.104000
     66 H28         14.0000    -0.6230    -9.0710 ha         1 YUK       0.104500
     67 H29         11.8080    -0.8860    -7.9800 ha         1 YUK       0.110500
     68 H293         1.2400    -0.0480     1.9280 hn         1 YUK       0.240800
@<TRIPOS>BOND
     1     1     2 2   
     2     2     3 1   
     3     2     4 1   
     4     3    39 1   
     5     3    40 1   
     6     3    68 1   
     7     4     5 ar  
     8     4    17 ar  
     9     5     6 1   
    10     5    14 ar  
    11     6     7 1   
    12     6    41 1   
    13     7     8 1   
    14     7    13 1   
    15     7    42 1   
    16     8     9 1   
    17     8    43 1   
    18     8    44 1   
    19     9    10 1   
    20     9    45 1   
    21     9    46 1   
    22    10    11 1   
    23    10    12 1   
    24    10    47 1   
    25    11    48 1   
    26    12    13 1   
    27    12    49 1   
    28    12    50 1   
    29    13    51 1   
    30    13    52 1   
    31    14    15 ar  
    32    14    53 1   
    33    15    16 ar  
    34    15    18 1   
    35    16    17 ar  
    36    16    54 1   
    37    17    55 1   
    38    18    19 ar  
    39    18    23 ar  
    40    19    20 ar  
    41    20    21 ar  
    42    20    56 1   
    43    21    22 ar  
    44    21    57 1   
    45    22    23 ar  
    46    22    24 ar  
    47    23    27 ar  
    48    24    25 ar  
    49    24    28 1   
    50    25    26 ar  
    51    25    58 1   
    52    26    27 ar  
    53    26    59 1   
    54    27    60 1   
    55    28    29 1   
    56    28    32 1   
    57    29    30 2   
    58    29    61 1   
    59    30    31 1   
    60    31    32 2   
    61    31    33 1   
    62    32    62 1   
    63    33    34 ar  
    64    33    38 ar  
    65    34    35 ar  
    66    34    63 1   
    67    35    36 ar  
    68    35    64 1   
    69    36    37 ar  
    70    36    65 1   
    71    37    38 ar  
    72    37    66 1   
    73    38    67 1   
@<TRIPOS>SUBSTRUCTURE
     1 YUK         1 TEMP              0 ****  ****    0 ROOT
