@<TRIPOS>MOLECULE
YUN
   38    40     1     0     0
SMALL
bcc


@<TRIPOS>ATOM
      1 CAL          0.0000     0.0000     0.0000 ca         1 YUN      -0.092000
      2 CAX          1.3820     0.0000     0.0000 ca         1 YUN       0.054100
      3 Br           2.3280     0.0020    -1.6370 br         1 YUN      -0.133100
      4 CAH          2.0750     0.0000     1.1980 ca         1 YUN      -0.098000
      5 CAF          1.3870    -0.0020     2.3980 ca         1 YUN      -0.080000
      6 CAI          0.0050    -0.0030     2.4030 ca         1 YUN      -0.123000
      7 CAY         -0.6930     0.0030     1.2030 ca         1 YUN      -0.007400
      8 NAT         -2.0910     0.0030     1.2060 nu         1 YUN      -0.279300
      9 C6          -2.7840     0.6930     0.2310 ca         1 YUN       0.544200
     10 C5          -4.1960     0.7820     0.2690 ca         1 YUN      -0.300600
     11 CAM         -4.9520     0.1840     1.2830 ca         1 YUN      -0.073000
     12 N1          -2.1440     1.2930    -0.7630 nb         1 YUN      -0.722000
     13 C2          -2.7970     1.9580    -1.7030 ca         1 YUN       0.680900
     14 N3          -4.1030     2.0700    -1.7220 nb         1 YUN      -0.675000
     15 C4          -4.8490     1.5040    -0.7600 ca         1 YUN       0.430600
     16 CAK         -6.2470     1.6100    -0.7500 ca         1 YUN      -0.139300
     17 CAJ         -6.9630     1.0200     0.2460 ca         1 YUN      -0.092000
     18 CAZ         -6.3250     0.3070     1.2660 ca         1 YUN      -0.113400
     19 NAS         -7.0880    -0.2890     2.2770 ns         1 YUN      -0.035100
     20 CAW         -6.6130    -0.3410     3.5370 c          1 YUN       0.561100
     21 OAC         -5.4940     0.0580     3.7810 o          1 YUN      -0.643100
     22 CAO         -7.4720    -0.8960     4.6440 c3         1 YUN      -0.097400
     23 CAN         -6.7000    -0.8420     5.9650 c3         1 YUN       0.021900
     24 H1          -0.5420     0.0050    -0.9380 ha         1 YUN       0.158000
     25 H2           3.1580     0.0000     1.1960 ha         1 YUN       0.116000
     26 H3           1.9320    -0.0040     3.3340 ha         1 YUN       0.107000
     27 H4          -0.5330    -0.0020     3.3440 ha         1 YUN       0.111000
     28 H5          -2.5890    -0.5320     1.8900 hn         1 YUN       0.299800
     29 H6          -4.4620    -0.3680     2.0760 ha         1 YUN       0.144000
     30 H7          -2.2260     2.4310    -2.4940 h5         1 YUN      -0.003900
     31 H8          -6.7560     2.1590    -1.5340 ha         1 YUN       0.122000
     32 H9          -8.0420     1.1050     0.2500 ha         1 YUN       0.105000
     33 H10         -7.9670    -0.7140     2.0560 hn         1 YUN       0.168500
     34 H11         -8.3770    -0.3060     4.7300 hc         1 YUN       0.026700
     35 H12         -7.7310    -1.9240     4.4190 hc         1 YUN       0.026700
     36 H13         -7.3390    -1.1840     6.7700 hc         1 YUN       0.010033
     37 H14         -6.3880     0.1770     6.1590 hc         1 YUN       0.010033
     38 H15         -5.8280    -1.4800     5.9000 hc         1 YUN       0.010033
@<TRIPOS>BOND
     1     1     2 ar  
     2     1     7 ar  
     3     1    24 1   
     4     2     3 1   
     5     2     4 ar  
     6     4     5 ar  
     7     4    25 1   
     8     5     6 ar  
     9     5    26 1   
    10     6     7 ar  
    11     6    27 1   
    12     7     8 1   
    13     8     9 1   
    14     8    28 1   
    15     9    10 ar  
    16     9    12 ar  
    17    10    11 ar  
    18    10    15 ar  
    19    11    18 ar  
    20    11    29 1   
    21    12    13 ar  
    22    13    14 ar  
    23    13    30 1   
    24    14    15 ar  
    25    15    16 ar  
    26    16    17 ar  
    27    16    31 1   
    28    17    18 ar  
    29    17    32 1   
    30    18    19 1   
    31    19    20 1   
    32    19    33 1   
    33    20    21 2   
    34    20    22 1   
    35    22    23 1   
    36    22    34 1   
    37    22    35 1   
    38    23    36 1   
    39    23    37 1   
    40    23    38 1   
@<TRIPOS>SUBSTRUCTURE
     1 YUN         1 TEMP              0 ****  ****    0 ROOT
