@<TRIPOS>MOLECULE
molecule
   66    67     1     0     0
SMALL
bcc


@<TRIPOS>ATOM
      1 OBH          0.0000     0.0000     0.0000 o          1 YVN      -0.539500
      2 PBF          1.4790     0.0000     0.0000 p5         1 YVN       1.150900
      3 OBI          2.0160     0.0000     1.5180 o          1 YVN      -0.539500
      4 OBG          2.0160    -1.3140    -0.7590 o          1 YVN      -0.539500
      5 OBE          2.0160     1.3150    -0.7600 os         1 YVN      -0.446500
      6 CBD          1.5290     1.4630    -2.0190 ca         1 YVN       0.167100
      7 CBC          2.2040     0.9050    -3.0950 ca         1 YVN      -0.135500
      8 CBB          1.7070     1.0580    -4.3760 ca         1 YVN      -0.097000
      9 CBJ          0.3530     2.1670    -2.2310 ca         1 YVN      -0.135500
     10 CBK         -0.1410     2.3160    -3.5120 ca         1 YVN      -0.097000
     11 CBA          0.5370     1.7650    -4.5850 ca         1 YVN      -0.075300
     12 CAZ         -0.0020     1.9300    -5.9810 cx         1 YVN       0.019600
     13 CAF          0.2440     3.2680    -6.6810 cx         1 YVN      -0.206700
     14 CAC          1.0100     4.3200    -5.9200 c          1 YVN       0.678100
     15 OAD          1.5370     4.0420    -4.8640 o          1 YVN      -0.562100
     16 NAB          1.1070     5.5710    -6.4130 ns         1 YVN      -0.593900
     17 CAA          1.8510     6.5930    -5.6740 c3         1 YVN       0.103300
     18 CAG          1.0110     2.0200    -7.1250 cx         1 YVN      -0.217700
     19 CAH          0.6280     1.4010    -8.4440 c          1 YVN       0.695100
     20 OAI         -0.4480     0.8570    -8.5690 o          1 YVN      -0.611100
     21 NAJ          1.4830     1.4510    -9.4850 ns         1 YVN      -0.573900
     22 CAK          1.1110     0.8490   -10.7680 c3         1 YVN       0.053700
     23 CAW          0.2900     1.8510   -11.5820 c3         1 YVN      -0.087700
     24 CAX         -1.0450     2.1060   -10.8810 c3         1 YVN      -0.088100
     25 CAY          1.0630     3.1660   -11.7020 c3         1 YVN      -0.088100
     26 CAL          2.3580     0.4830   -11.5310 c          1 YVN       0.651100
     27 OAM          3.4420     0.8580   -11.1380 o          1 YVN      -0.604100
     28 NAN          2.2680    -0.2620   -12.6500 ns         1 YVN      -0.592900
     29 CAO          3.4850    -0.7010   -13.3370 c3         1 YVN       0.112700
     30 CAT          3.1880    -1.9690   -14.1400 c          1 YVN       0.254100
     31 OAV          2.5580    -1.9020   -15.1480 o          1 YVN      -0.552100
     32 NAU          3.6640    -3.2700   -13.6590 nz         1 YVN      -0.666400
     33 CAP          3.9560     0.3850   -14.2700 c3         1 YVN      -0.098400
     34 CAQ          5.4570     0.1910   -14.5710 c          1 YVN       0.292100
     35 OAS          6.1310    -0.4620   -13.8390 o          1 YVN      -0.538100
     36 NAR          6.0630     0.8500   -15.7300 nz         1 YVN      -0.673400
     37 HBC          3.1200     0.3520    -2.9320 ha         1 YVN       0.148500
     38 HBB          2.2350     0.6250    -5.2170 ha         1 YVN       0.116500
     39 HBJ         -0.1790     2.5990    -1.3910 ha         1 YVN       0.148500
     40 HBK         -1.0580     2.8680    -3.6780 ha         1 YVN       0.116500
     41 HAZ         -0.9370     1.4490    -6.2410 hc         1 YVN       0.110700
     42 HAF         -0.5450     3.5790    -7.3550 hc         1 YVN       0.086700
     43 HNAB         0.6490     5.8080    -7.2710 hn         1 YVN       0.305500
     44 HAA1         1.8980     7.5020    -6.2620 h1         1 YVN       0.042033
     45 HAA2         1.3500     6.7960    -4.7350 h1         1 YVN       0.042033
     46 HAA3         2.8550     6.2380    -5.4770 h1         1 YVN       0.042033
     47 HAG          2.0480     1.9910    -6.8150 hc         1 YVN       0.113700
     48 HNAJ         2.3860     1.8670    -9.3710 hn         1 YVN       0.339500
     49 HAK          0.5210    -0.0420   -10.5920 h1         1 YVN       0.093700
     50 HAW          0.1070     1.4490   -12.5710 hc         1 YVN       0.041700
     51 HAX1        -1.5020     1.1600   -10.6180 hc         1 YVN       0.043533
     52 HAX2        -1.7030     2.6530   -11.5460 hc         1 YVN       0.043533
     53 HAX3        -0.8760     2.6870    -9.9820 hc         1 YVN       0.043533
     54 HAY1         2.1040     2.9970   -11.4530 hc         1 YVN       0.043533
     55 HAY2         0.9900     3.5360   -12.7170 hc         1 YVN       0.043533
     56 HAY3         0.6430     3.8950   -11.0200 hc         1 YVN       0.043533
     57 HNAN         1.3720    -0.5470   -12.9910 hn         1 YVN       0.332500
     58 HAO          4.2580    -0.9090   -12.6060 h1         1 YVN       0.095700
     59 HAU1         4.1700    -3.7310   -14.3900 hn         1 YVN       0.430467
     60 HAU2         4.2660    -3.1340   -12.8710 hn         1 YVN       0.430467
     61 HAP1         3.3930     0.3350   -15.1950 hc         1 YVN       0.079700
     62 HAP2         3.8030     1.3510   -13.8060 hc         1 YVN       0.079700
     63 HAR1         5.8470     1.8270   -15.7090 hn         1 YVN       0.432133
     64 HAR2         5.7000     0.4460   -16.5710 hn         1 YVN       0.432133
     65 HAU3         2.8840    -3.8220   -13.3640 hn         1 YVN       0.430467
     66 HAR3         7.0550     0.7180   -15.7090 hn         1 YVN       0.432133
@<TRIPOS>BOND
     1     1     2 1
     2     2     3 1
     3     2     5 1
     4     2     4 1
     5     5     6 1
     6     6     9 ar
     7     6     7 ar
     8     7     8 ar
     9     7    37 1
    10     8    11 ar
    11     8    38 1
    12     9    10 ar
    13     9    39 1
    14    10    11 ar
    15    10    40 1
    16    11    12 1
    17    12    18 1
    18    12    13 1
    19    12    41 1
    20    13    18 1
    21    13    14 1
    22    13    42 1
    23    14    15 2
    24    14    16 1
    25    16    17 1
    26    16    43 1
    27    17    44 1
    28    17    45 1
    29    17    46 1
    30    18    19 1
    31    18    47 1
    32    19    21 1
    33    19    20 2
    34    21    22 1
    35    21    48 1
    36    22    23 1
    37    22    26 1
    38    22    49 1
    39    23    25 1
    40    23    24 1
    41    23    50 1
    42    24    51 1
    43    24    52 1
    44    24    53 1
    45    25    54 1
    46    25    55 1
    47    25    56 1
    48    26    28 1
    49    26    27 2
    50    28    29 1
    51    28    57 1
    52    29    33 1
    53    29    30 1
    54    29    58 1
    55    30    32 1
    56    30    31 2
    57    32    59 1
    58    32    60 1
    59    33    34 1
    60    33    61 1
    61    33    62 1
    62    34    36 1
    63    34    35 2
    64    36    63 1
    65    36    64 1
    66    65    32 1
    67    66    36 1
@<TRIPOS>SUBSTRUCTURE
     1 YVN         1 TEMP              0 ****  ****    0 ROOT
