@<TRIPOS>MOLECULE
YVN
   69    70     1     0     0
SMALL
bcc


@<TRIPOS>ATOM
      1 OBH       368.4110  118.1440   59.7510 os        1 YVN     -0.309400
      2 PBF       367.6820  119.4510   59.0950 p5        1 YVN      1.561500
      3 OBI       369.0820  119.3100   59.9260 os        1 YVN     -0.309400
      4 OBG       366.4390  120.1230   59.3380 o         1 YVN     -0.633300
      5 OBE       368.1710  119.4190   57.5550 os        1 YVN     -0.473500
      6 CBD       369.2380  118.7050   57.0870 ca        1 YVN      0.222100
      7 CBC       369.0290  117.4310   56.5290 ca        1 YVN     -0.129000
      8 CBB       371.5820  118.5790   56.5190 ca        1 YVN     -0.107500
      9 CBJ       370.5170  119.2980   57.0440 ca        1 YVN     -0.129000
     10 CBK       370.1110  116.7240   56.0120 ca        1 YVN     -0.107500
     11 CBA       371.3990  117.2800   56.0170 ca        1 YVN     -0.180300
     12 CAZ       372.5190  116.4480   55.5640 cx        1 YVN      0.016600
     13 CAF       373.6600  116.9890   54.7300 cx        1 YVN     -0.211700
     14 CAC       373.7470  118.4180   54.3380 c         1 YVN      0.569100
     15 OAD       374.6130  119.2240   54.6290 o         1 YVN     -0.370100
     16 NAB       372.6100  118.8880   53.4570 n4        1 YVN     -0.666800
     17 CAA       372.8370  120.2270   52.8620 c3        1 YVN      0.078100
     18 CAG       373.8960  116.6220   56.1780 cx        1 YVN     -0.200700
     19 CAH       374.7430  115.4340   56.4630 c         1 YVN      0.586100
     20 OAI       375.6510  114.9900   55.7790 o         1 YVN     -0.387100
     21 NAJ       374.4370  114.7390   57.7670 n4        1 YVN     -0.659800
     22 CAK       374.5950  113.2400   57.7000 c3        1 YVN      0.040500
     23 CAW       374.5170  112.6210   59.1090 c3        1 YVN     -0.084700
     24 CAX       373.1920  112.9030   59.7830 c3        1 YVN     -0.126100
     25 CAY       375.6780  113.0710   59.9710 c3        1 YVN     -0.126100
     26 CAL       373.5140  112.6450   56.7600 c         1 YVN      0.662100
     27 OAM       372.6520  113.4120   56.2660 o         1 YVN     -0.669100
     28 NAN       373.5630  111.3250   56.4760 n         1 YVN     -0.603000
     29 CAO     -1146.5140 -369.7810 -204.9200 c2        1 YVN     -0.480200
     30 CAT     -1146.1410 -370.6860 -205.8790 c2        1 YVN      0.500300
     31 OAV     -1145.1140 -370.7670 -206.6070 o         1 YVN     -0.736300
     32 NAU     -1147.1280 -371.8080 -206.1880 n4        1 YVN     -0.728400
     33 CAP     -1145.5590 -368.7900 -204.4050 c3        1 YVN     -0.028200
     34 CAQ     -1145.2710 -367.7210 -205.4350 c         1 YVN      0.545100
     35 OAS     -1145.7680 -366.6160 -205.5650 o         1 YVN     -0.416100
     36 NAR     -1144.2340 -368.0820 -206.4790 n4        1 YVN     -0.773400
     37 HBC       368.0190  116.9890   56.5120 ha        1 YVN      0.178500
     38 HBB       372.5860  119.0330   56.5420 ha        1 YVN      0.146000
     39 HBJ       370.6730  120.3100   57.4510 ha        1 YVN      0.178500
     40 HBK       369.9450  115.7100   55.6100 ha        1 YVN      0.146000
     41 HAZ       372.2040  115.3980   55.3250 hc        1 YVN      0.161700
     42 HAF       374.1010  116.3310   53.9420 hc        1 YVN      0.166700
     43 HNAB      372.4680  118.1990   52.7070 hn        1 YVN      0.473300
     44 HAA1      372.9960  120.9820   53.6800 hx        1 YVN      0.122700
     45 HAA2      371.9390  120.5100   52.2480 hx        1 YVN      0.122700
     46 HAA3      373.7530  120.1980   52.2100 hx        1 YVN      0.122700
     47 HAG       374.0600  117.4400   56.9170 hc        1 YVN      0.152700
     48 HNAJ      375.0660  115.0910   58.5020 hn        1 YVN      0.480300
     49 HAK       375.6190  113.0380   57.2550 hx        1 YVN      0.140700
     50 HAW       374.6160  111.5040   58.9620 hc        1 YVN      0.103700
     51 HAX1      372.3390  112.7090   59.0880 hc        1 YVN      0.065367
     52 HAX2      373.0770  112.2330   60.6730 hc        1 YVN      0.065367
     53 HAX3      373.1320  113.9570   60.1490 hc        1 YVN      0.065367
     54 HAY1      375.7370  112.4190   60.8800 hc        1 YVN      0.065367
     55 HAY2      375.5510  114.1220   60.3290 hc        1 YVN      0.065367
     56 HAY3      376.6480  112.9840   59.4230 hc        1 YVN      0.065367
     57 HNAN      374.2450  110.7240   56.8720 hn        1 YVN      0.352000
     58 HAO     -1147.5030 -369.7940 -204.4480 ha        1 YVN      0.160000
     59 HAU1    -1146.7500 -372.3750 -206.9530 hn        1 YVN      0.449133
     60 HAU2    -1147.2460 -372.3920 -205.3590 hn        1 YVN      0.449133
     61 HAP1    -1145.9970 -368.2620 -203.5110 hc        1 YVN      0.100200
     62 HAP2    -1144.5930 -369.2730 -204.0900 hc        1 YVN      0.100200
     63 HAR1    -1144.5350 -368.9410 -206.9790 hn        1 YVN      0.469800
     64 HAR2    -1144.1080 -367.3190 -207.1500 hn        1 YVN      0.469800
     65 HAB2      371.7580  118.9030   54.0440 hn        1 YVN      0.473300
     66 HAJ2      373.4590  114.9400   58.0280 hn        1 YVN      0.480300
     67 HAN2      372.8680  110.9300   55.8790 hn        1 YVN      0.352000
     68 HAU3    -1148.0330 -371.4260 -206.4570 hn        1 YVN      0.449133
     69 HAR3    -1143.3420 -368.2830 -206.0220 hn        1 YVN      0.469800
@<TRIPOS>BOND
     1    1    2 1   
     2    1    3 1   
     3    2    3 1   
     4    2    4 2   
     5    2    5 1   
     6    5    6 1   
     7    6    7 ar  
     8    6    9 ar  
     9    7   10 ar  
    10    7   37 1   
    11    8    9 ar  
    12    8   11 ar  
    13    8   38 1   
    14    9   39 1   
    15   10   11 ar  
    16   10   40 1   
    17   11   12 1   
    18   12   13 1   
    19   12   18 1   
    20   12   41 1   
    21   13   14 1   
    22   13   18 1   
    23   13   42 1   
    24   14   15 2   
    25   14   16 1   
    26   16   17 1   
    27   16   43 1   
    28   16   65 1   
    29   17   44 1   
    30   17   45 1   
    31   17   46 1   
    32   18   19 1   
    33   18   47 1   
    34   19   20 2   
    35   19   21 1   
    36   21   22 1   
    37   21   48 1   
    38   21   66 1   
    39   22   23 1   
    40   22   26 1   
    41   22   49 1   
    42   23   24 1   
    43   23   25 1   
    44   23   50 1   
    45   24   51 1   
    46   24   52 1   
    47   24   53 1   
    48   25   54 1   
    49   25   55 1   
    50   25   56 1   
    51   26   27 2   
    52   26   28 1   
    53   28   57 1   
    54   28   67 1   
    55   29   30 2   
    56   29   33 1   
    57   29   58 1   
    58   30   31 1   
    59   30   32 1   
    60   32   59 1   
    61   32   60 1   
    62   32   68 1   
    63   33   34 1   
    64   33   61 1   
    65   33   62 1   
    66   34   35 2   
    67   34   36 1   
    68   36   63 1   
    69   36   64 1   
    70   36   69 1   
@<TRIPOS>SUBSTRUCTURE
     1 YVN         1 TEMP              0 ****  ****    0 ROOT
