@<TRIPOS>MOLECULE
molecule
   35    39     1     0     0
SMALL
bcc


@<TRIPOS>ATOM
      1 CAV          0.0000     0.0000     0.0000 ca         1 YVQ      -0.084800
      2 CAF          1.3940     0.0000     0.0000 ca         1 YVQ      -0.078000
      3 CAB          2.0730     0.0000     1.1860 ca         1 YVQ      -0.152000
      4 CAA          1.3840     0.0010     2.3920 ca         1 YVQ      -0.104000
      5 CAE          0.0070     0.0020     2.4130 ca         1 YVQ      -0.142000
      6 CAU         -0.7030     0.0010     1.2170 ca         1 YVQ      -0.035200
      7 NAO         -2.0480     0.0020     0.9170 na         1 YVQ      -0.175400
      8 CAI         -2.2280     0.0020    -0.4390 cc         1 YVQ      -0.103100
      9 CAR         -1.0210     0.0060    -1.0610 cd         1 YVQ      -0.075200
     10 CAS         -0.7800     0.0130    -2.5180 cd         1 YVQ      -0.101100
     11 CAD          0.4460     0.0150    -3.1500 cc         1 YVQ       0.043600
     12 NAM          0.2400     0.0210    -4.4630 nc         1 YVQ      -0.290600
     13 CAT         -1.0630     0.0240    -4.7080 cd         1 YVQ      -0.174600
     14 CAG         -1.8130     0.0310    -5.8990 cd         1 YVQ       0.497200
     15 NAL         -3.1230     0.0320    -5.8470 nc         1 YVQ      -0.697000
     16 NAW         -1.7290     0.0130    -3.5030 na         1 YVQ       0.070700
     17 CAJ         -3.0960     0.0080    -3.4950 cd         1 YVQ      -0.216600
     18 CAQ         -3.7750     0.0270    -4.6740 cc         1 YVQ       0.491800
     19 CAP         -5.2600     0.0290    -4.6630 cc         1 YVQ      -0.369800
     20 CAC         -6.0740     0.0350    -5.7570 cd         1 YVQ      -0.062300
     21 CAH         -6.0840     0.0180    -3.5200 cc         1 YVQ       0.344200
     22 NAN         -7.3290     0.0230    -3.9170 nd         1 YVQ      -0.506800
     23 NAK         -7.3500     0.0340    -5.3160 na         1 YVQ      -0.040600
     24 HAF          1.9370    -0.0010    -0.9370 ha         1 YVQ       0.132000
     25 HAB          3.1560    -0.0010     1.1860 ha         1 YVQ       0.132000
     26 HAA          1.9360     0.0010     3.3240 ha         1 YVQ       0.133000
     27 HAE         -0.5210     0.0030     3.3590 ha         1 YVQ       0.127000
     28 HAI         -3.1890     0.0000    -0.9400 h4         1 YVQ       0.163000
     29 HAD          1.4120     0.0110    -2.6600 h4         1 YVQ       0.190000
     30 HAG         -1.3080     0.0350    -6.8580 h4         1 YVQ       0.052100
     31 HAJ         -3.6350     0.0040    -2.5550 h4         1 YVQ       0.162000
     32 HAC         -5.7550     0.0430    -6.7920 h4         1 YVQ       0.192000
     33 HAH         -5.7440     0.0100    -2.4910 h4         1 YVQ       0.043100
     34 HAK         -8.1690     0.0380    -5.8910 hn         1 YVQ       0.335700
     35 H12         -2.7850    -0.0000     1.5930 hn         1 YVQ       0.299700
@<TRIPOS>BOND
     1     1     2 ar
     2     1     6 ar
     3     1     9 1
     4     2     3 ar
     5     2    24 1
     6     3     4 ar
     7     3    25 1
     8     4     5 ar
     9     4    26 1
    10     5     6 ar
    11     5    27 1
    12     6     7 1
    13     7     8 1
    14     8     9 2
    15     8    28 1
    16     9    10 1
    17    10    11 2
    18    10    16 1
    19    11    12 1
    20    11    29 1
    21    12    13 2
    22    13    14 1
    23    13    16 1
    24    14    15 2
    25    14    30 1
    26    15    18 1
    27    16    17 1
    28    17    18 2
    29    17    31 1
    30    18    19 1
    31    19    20 2
    32    19    21 1
    33    20    23 1
    34    20    32 1
    35    21    22 2
    36    21    33 1
    37    22    23 1
    38    23    34 1
    39     7    35 1
@<TRIPOS>SUBSTRUCTURE
     1 YVQ         1 TEMP              0 ****  ****    0 ROOT
