@<TRIPOS>MOLECULE
YVQ
   35    39     1     0     0
SMALL
bcc


@<TRIPOS>ATOM
      1 CAV        -0.0520   -0.0250   -0.0630 ca        1 YVQ     -0.075800
      2 CAF         1.1830    0.6240   -0.0830 ca        1 YVQ     -0.081000
      3 CAB         1.7730    0.9790    1.1210 ca        1 YVQ     -0.153000
      4 CAA         1.1510    0.6990    2.3510 ca        1 YVQ     -0.110000
      5 CAE        -0.0770    0.0590    2.4160 ca        1 YVQ     -0.143000
      6 CAU        -0.6870   -0.3050    1.2050 ca        1 YVQ     -0.047200
      7 NAO        -1.9080   -0.9390    0.9510 na        1 YVQ     -0.185400
      8 CAI        -2.0540   -1.0810   -0.4270 cc        1 YVQ     -0.097100
      9 CAR        -0.9490   -0.5310   -1.0870 cd        1 YVQ     -0.078200
     10 CAS        -0.7130   -0.4920   -2.4940 cd        1 YVQ     -0.075100
     11 CAD         0.5180   -0.6450   -3.2010 cc        1 YVQ      0.014600
     12 NAM         0.3380   -0.5570   -4.5640 nc        1 YVQ     -0.255600
     13 CAT        -0.9980   -0.3480   -4.7450 cd        1 YVQ     -0.175600
     14 CAG        -1.8050   -0.1770   -5.9340 cd        1 YVQ      0.468200
     15 NAL        -3.1020    0.0260   -5.9000 nc        1 YVQ     -0.662000
     16 NAW        -1.6820   -0.2980   -3.4820 na        1 YVQ      0.035700
     17 CAJ        -3.0390   -0.0740   -3.4540 cd        1 YVQ     -0.185600
     18 CAQ        -3.7330    0.0850   -4.6560 cc        1 YVQ      0.461800
     19 CAP        -5.1560    0.3190   -4.6280 cc        1 YVQ     -0.319800
     20 CAC        -6.0320    0.4100   -5.7300 cd        1 YVQ     -0.089300
     21 CAH        -6.0070    0.5170   -3.4690 cc        1 YVQ      0.307200
     22 NAN        -7.2900    0.7070   -3.8640 nd        1 YVQ     -0.514800
     23 NAK        -7.2980    0.6420   -5.1990 na        1 YVQ     -0.021600
     24 HAF         1.6710    0.8480   -1.0430 ha        1 YVQ      0.141000
     25 HAB         2.7460    1.4910    1.1210 ha        1 YVQ      0.133000
     26 HAA         1.6540    0.9960    3.2840 ha        1 YVQ      0.132000
     27 HAE        -0.5580   -0.1550    3.3800 ha        1 YVQ      0.134000
     28 HAI        -2.9340   -1.5760   -0.8460 h4        1 YVQ      0.169000
     29 HAD         1.5000   -0.8200   -2.7590 h4        1 YVQ      0.187000
     30 HAG        -1.3050   -0.2180   -6.9190 h4        1 YVQ      0.050100
     31 HAJ        -3.5220   -0.0190   -2.4660 h4        1 YVQ      0.171000
     32 HAC        -5.8370    0.3290   -6.8000 h4        1 YVQ      0.195000
     33 HAH        -5.7180    0.5290   -2.4180 h4        1 YVQ      0.040100
     34 HAK        -8.1460    0.7610   -5.7000 hn        1 YVQ      0.324700
     35 H12        -2.5260   -1.2820    1.6360 hn        1 YVQ      0.302700
@<TRIPOS>BOND
     1    1    2 ar  
     2    1    6 ar  
     3    1    9 1   
     4    2    3 ar  
     5    2   24 1   
     6    3    4 ar  
     7    3   25 1   
     8    4    5 ar  
     9    4   26 1   
    10    5    6 ar  
    11    5   27 1   
    12    6    7 1   
    13    7    8 1   
    14    7   35 1   
    15    8    9 2   
    16    8   28 1   
    17    9   10 1   
    18   10   11 2   
    19   10   16 1   
    20   11   12 1   
    21   11   29 1   
    22   12   13 2   
    23   13   14 1   
    24   13   16 1   
    25   14   15 2   
    26   14   30 1   
    27   15   18 1   
    28   16   17 1   
    29   17   18 2   
    30   17   31 1   
    31   18   19 1   
    32   19   20 2   
    33   19   21 1   
    34   20   23 1   
    35   20   32 1   
    36   21   22 2   
    37   21   33 1   
    38   22   23 1   
    39   23   34 1   
@<TRIPOS>SUBSTRUCTURE
     1 YVQ         1 TEMP              0 ****  ****    0 ROOT
