@<TRIPOS>MOLECULE
molecule
   15    15     1     0     0
SMALL
bcc


@<TRIPOS>ATOM
      1 O6           0.0000     0.0000     0.0000 o          1 YVR      -0.562500
      2 C5           1.2080     0.0000     0.0000 c          1 YVR       0.737600
      3 O1           1.9900     0.0000     1.0880 os         1 YVR      -0.406900
      4 C4           2.0930    -0.0070    -1.2320 c3         1 YVR      -0.205400
      5 C3           3.3690    -0.7300    -0.7400 c3         1 YVR      -0.118400
      6 C2           3.3340    -0.4550     0.7780 c3         1 YVR       0.141100
      7 C7           3.6410    -1.7440     1.5430 c3         1 YVR      -0.103100
      8 H1           1.6250    -0.5640    -2.0350 hc         1 YVR       0.082200
      9 H2           2.3240     1.0050    -1.5410 hc         1 YVR       0.082200
     10 H3           4.2540    -0.2960    -1.1880 hc         1 YVR       0.064200
     11 H4           3.3090    -1.7930    -0.9390 hc         1 YVR       0.064200
     12 H5           4.0540     0.3140     1.0320 h1         1 YVR       0.072700
     13 H6           2.8570    -2.4690     1.3580 hc         1 YVR       0.050033
     14 H7           4.5900    -2.1450     1.2090 hc         1 YVR       0.050033
     15 H8           3.6920    -1.5310     2.6040 hc         1 YVR       0.050033
@<TRIPOS>BOND
     1     7     6 1
     2     4     5 1
     3     4     2 1
     4     5     6 1
     5     2     3 1
     6     2     1 2
     7     3     6 1
     8     4     8 1
     9     4     9 1
    10     5    10 1
    11     5    11 1
    12     6    12 1
    13     7    13 1
    14     7    14 1
    15     7    15 1
@<TRIPOS>SUBSTRUCTURE
     1 YVR         1 TEMP              0 ****  ****    0 ROOT
