@<TRIPOS>MOLECULE
molecule
   45    45     1     0     0
SMALL
bcc


@<TRIPOS>ATOM
      1 C1           0.0000     0.0000     0.0000 c3         1 YWN       0.097800
      2 N2           1.4690     0.0000     0.0000 n3         1 YWN      -0.697600
      3 C3           1.9990     0.0000     1.3800 c3         1 YWN       0.173500
      4 C4           3.3050    -0.8310     1.3030 c3         1 YWN       0.121100
      5 C5           2.9140    -1.9330     0.2820 c3         1 YWN       0.106100
      6 C6           1.9960    -1.1820    -0.7060 c3         1 YWN       0.166500
      7 C7          -0.5100     0.5970    -1.3130 c3         1 YWN      -0.079400
      8 C8          -2.0400     0.6320    -1.2980 c3         1 YWN      -0.082400
      9 C9          -2.5490     1.2280    -2.6110 c3         1 YWN      -0.084400
     10 C10         -4.0790     1.2630    -2.5960 c3         1 YWN      -0.092100
     11 C11          2.3030     1.4290     1.8330 c3         1 YWN      -0.138400
     12 C12          1.0210     2.1130     2.2320 c          1 YWN       0.661100
     13 O13          0.0140     1.4600     2.4040 o          1 YWN      -0.622100
     14 N14          0.9930     3.4500     2.3980 ns         1 YWN      -0.587900
     15 C15         -0.2530     4.1150     2.7850 c3         1 YWN       0.101300
     16 C18          0.8420    -2.0900    -1.1350 c3         1 YWN       0.099400
     17 O19          0.2600    -2.6990     0.0190 oh         1 YWN      -0.614800
     18 O20          4.0740    -2.4340    -0.3860 oh         1 YWN      -0.588800
     19 O21          4.3870    -0.0380     0.8120 oh         1 YWN      -0.574800
     20 H11C        -0.3610    -1.0160     0.0990 h1         1 YWN       0.081700
     21 H12C        -0.3610     0.5940     0.8310 h1         1 YWN       0.081700
     22 H71C        -0.1710    -0.0120    -2.1420 hc         1 YWN       0.042200
     23 H72C        -0.1270     1.6040    -1.4250 hc         1 YWN       0.042200
     24 H3           1.2930    -0.4730     2.0520 h1         1 YWN       0.073700
     25 H6           2.5670    -0.8690    -1.5710 h1         1 YWN       0.097700
     26 H4           3.5410    -1.2660     2.2670 h1         1 YWN       0.037700
     27 H111         2.7660     1.9760     1.0200 hc         1 YWN       0.073700
     28 H112         2.9770     1.4030     2.6810 hc         1 YWN       0.073700
     29 H5           2.3720    -2.7310     0.7740 h1         1 YWN       0.062700
     30 H21          5.1660    -0.2280     1.3070 ho         1 YWN       0.398000
     31 H20          4.2580    -3.3080    -0.0830 ho         1 YWN       0.395000
     32 H181         1.2160    -2.8600    -1.7990 h1         1 YWN       0.042200
     33 H182         0.0920    -1.5020    -1.6510 h1         1 YWN       0.042200
     34 H81C        -2.3790     1.2420    -0.4690 hc         1 YWN       0.042200
     35 H82C        -2.4230    -0.3750    -1.1850 hc         1 YWN       0.042200
     36 H91C        -2.2110     0.6180    -3.4400 hc         1 YWN       0.038700
     37 H92C        -2.1660     2.2350    -2.7240 hc         1 YWN       0.038700
     38 H101        -4.4180     1.8740    -1.7680 hc         1 YWN       0.031700
     39 H102        -4.4400     1.6830    -3.5270 hc         1 YWN       0.031700
     40 H103        -4.4620     0.2560    -2.4820 hc         1 YWN       0.031700
     41 H14          1.8290     3.9870     2.2750 hn         1 YWN       0.314500
     42 H151        -0.6920     3.5960     3.6290 h1         1 YWN       0.041033
     43 H152        -0.0430     5.1410     3.0620 h1         1 YWN       0.041033
     44 H153        -0.9440     4.0990     1.9520 h1         1 YWN       0.041033
     45 H19         -0.1450    -3.5150    -0.2260 ho         1 YWN       0.399000
@<TRIPOS>BOND
     1     1     2 1
     2     1     7 1
     3     2     3 1
     4     2     6 1
     5     3     4 1
     6     3    11 1
     7     4     5 1
     8     4    19 1
     9     5     6 1
    10     5    18 1
    11     6    16 1
    12     7     8 1
    13     8     9 1
    14     9    10 1
    15    11    12 1
    16    12    13 2
    17    12    14 1
    18    14    15 1
    19    16    17 1
    20     1    20 1
    21     1    21 1
    22     7    22 1
    23     7    23 1
    24     3    24 1
    25     6    25 1
    26     4    26 1
    27    11    27 1
    28    11    28 1
    29     5    29 1
    30    19    30 1
    31    18    31 1
    32    16    32 1
    33    16    33 1
    34     8    34 1
    35     8    35 1
    36     9    36 1
    37     9    37 1
    38    10    38 1
    39    10    39 1
    40    10    40 1
    41    14    41 1
    42    15    42 1
    43    15    43 1
    44    15    44 1
    45    17    45 1
@<TRIPOS>SUBSTRUCTURE
     1 YWN         1 TEMP              0 ****  ****    0 ROOT
