@<TRIPOS>MOLECULE
molecule
   42    43     1     0     0
SMALL
bcc


@<TRIPOS>ATOM
      1 C1           0.0000     0.0000     0.0000 ca         1 YWO      -0.022000
      2 N1           2.1220     0.0010    -1.2810 no         1 YWO       0.297200
      3 O1           3.4330    -0.0000     1.2050 os         1 YWO      -0.210200
      4 C2           1.3810     0.0000     0.0000 ca         1 YWO      -0.173200
      5 N2           7.9800     1.2130     5.3230 nz         1 YWO      -0.796600
      6 O2           1.5140     0.0020    -2.3360 o          1 YWO      -0.187000
      7 C3           2.0740     0.0000     1.2020 ca         1 YWO       0.169100
      8 N3           8.4040    -1.3970     7.8630 nz         1 YWO      -0.676400
      9 O3           3.3400     0.0020    -1.2800 o          1 YWO      -0.187000
     10 C4           1.3770    -0.0000     2.4020 ca         1 YWO      -0.234000
     11 O4           8.7420     0.7950     7.8340 o          1 YWO      -0.363100
     12 C5          -0.0050    -0.0010     2.3960 ca         1 YWO       0.000700
     13 C6          -0.6930    -0.0010     1.1970 ca         1 YWO      -0.143000
     14 C7           4.0680    -0.0110     2.4070 ca         1 YWO       0.180100
     15 C8           4.3930    -1.2180     3.0100 ca         1 YWO      -0.112500
     16 C9           5.0390    -1.2280     4.2310 ca         1 YWO      -0.115000
     17 C10          5.3620    -0.0370     4.8520 ca         1 YWO      -0.204300
     18 C11          5.0390     1.1680     4.2540 ca         1 YWO      -0.115000
     19 C12          4.3980     1.1830     3.0310 ca         1 YWO      -0.112500
     20 C13         -0.7640    -0.0010     3.6990 c3         1 YWO      -0.058800
     21 C14          6.0660    -0.0500     6.1840 c3         1 YWO      -0.043100
     22 C15          7.5800    -0.0480     5.9610 c3         1 YWO       0.033500
     23 C16          8.2840    -0.1860     7.2870 c          1 YWO       0.470100
     24 H1          -0.5410     0.0000    -0.9380 ha         1 YWO       0.190000
     25 HN2          8.9700     1.3310     5.4080 hn         1 YWO       0.484800
     26 HN2A         7.7280     1.1920     4.3550 hn         1 YWO       0.484800
     27 HN3          7.6510    -1.5370     8.5070 hn         1 YWO       0.503133
     28 HN3A         8.3760    -2.1070     7.1580 hn         1 YWO       0.503133
     29 H4           1.9150    -0.0000     3.3420 ha         1 YWO       0.136000
     30 H6          -1.7760    -0.0010     1.1950 ha         1 YWO       0.169000
     31 H8           4.1400    -2.1530     2.5230 ha         1 YWO       0.186000
     32 H9           5.2930    -2.1700     4.7010 ha         1 YWO       0.129000
     33 H11          5.2950     2.1000     4.7430 ha         1 YWO       0.129000
     34 H12          4.1450     2.1270     2.5630 ha         1 YWO       0.186000
     35 H13         -0.5060     0.8850     4.2670 hc         1 YWO       0.059700
     36 H13A        -1.8280    -0.0040     3.4970 hc         1 YWO       0.059700
     37 H13B        -0.5020    -0.8840     4.2690 hc         1 YWO       0.059700
     38 H14          5.7830    -0.9400     6.7340 hc         1 YWO       0.095700
     39 H14A         5.7840     0.8290     6.7510 hc         1 YWO       0.095700
     40 H15          7.8520    -0.8780     5.3200 hx         1 YWO       0.145700
     41 H23          7.5130     1.9770     5.7720 hn         1 YWO       0.484800
     42 H33          9.3200    -1.4900     8.2570 hn         1 YWO       0.503133
@<TRIPOS>BOND
     1     1     4 ar
     2     1    13 ar
     3     2     4 1
     4     2     6 1
     5     2     9 1
     6     3     7 1
     7     3    14 1
     8     4     7 ar
     9     5    22 1
    10     7    10 ar
    11     8    23 1
    12    10    12 ar
    13    11    23 2
    14    12    13 ar
    15    12    20 1
    16    14    15 ar
    17    14    19 ar
    18    15    16 ar
    19    16    17 ar
    20    17    18 ar
    21    17    21 1
    22    18    19 ar
    23    21    22 1
    24    22    23 1
    25     1    24 1
    26     5    25 1
    27     5    26 1
    28     8    27 1
    29     8    28 1
    30    10    29 1
    31    13    30 1
    32    15    31 1
    33    16    32 1
    34    18    33 1
    35    19    34 1
    36    20    35 1
    37    20    36 1
    38    20    37 1
    39    21    38 1
    40    21    39 1
    41    22    40 1
    42    41     5 1
    43    42     8 1
@<TRIPOS>SUBSTRUCTURE
     1 YWO         1 TEMP              0 ****  ****    0 ROOT
