@<TRIPOS>MOLECULE
molecule
   60    61     1     0     0
SMALL
bcc


@<TRIPOS>ATOM
      1 O1           0.0000     0.0000     0.0000 o          1 YWZ      -0.622300
      2 O2           2.1990    -0.9980    -0.6480 o          1 YWZ      -0.622300
      3 O3           1.8510     1.3330    -0.5960 os         1 YWZ      -0.463800
      4 O4          11.2210     1.6160    -3.2460 os         1 YWZ      -0.385900
      5 O5          13.6580     2.9890    -3.9090 os         1 YWZ      -0.417600
      6 C6           3.1570     1.3780    -0.9660 ca         1 YWZ       0.022100
      7 C7           4.1220     1.7890    -0.0570 ca         1 YWZ      -0.107500
      8 C8           5.4500     1.8300    -0.4290 ca         1 YWZ      -0.104000
      9 C9           5.8220     1.4570    -1.7200 cp         1 YWZ       0.021000
     10 C10          7.2490     1.5000    -2.1240 cp         1 YWZ      -0.129000
     11 C11          7.6210     1.1270    -3.4140 ca         1 YWZ      -0.063500
     12 C12          8.9480     1.1680    -3.7860 ca         1 YWZ      -0.246000
     13 C13          9.9140     1.5780    -2.8760 ca         1 YWZ       0.203100
     14 C14         12.1610     2.0500    -2.2600 c3         1 YWZ       0.119400
     15 C15         13.5710     2.0270    -2.8550 c3         1 YWZ      -0.242600
     16 C16         14.9410     3.0490    -4.5350 c3         1 YWZ       0.106400
     17 C25          9.5460     1.9490    -1.5900 ca         1 YWZ      -0.246000
     18 C26          8.2200     1.9170    -1.2150 ca         1 YWZ      -0.063500
     19 C27          4.8510     1.0450    -2.6310 ca         1 YWZ      -0.104000
     20 C28          3.5250     1.0060    -2.2530 ca         1 YWZ      -0.107500
     21 S            1.4210     0.0000     0.0000 s6         1 YWZ       1.741200
     22 H3           3.4350     1.8930     0.7730 ha         1 YWZ       0.148000
     23 H4           6.0140     2.1630     0.4340 ha         1 YWZ       0.149000
     24 H5           6.8500     0.5630    -3.9250 ha         1 YWZ       0.139000
     25 H6           9.0710     1.1110    -4.8610 ha         1 YWZ       0.165500
     26 H7          11.8100     1.7400    -1.2840 h1         1 YWZ       0.130700
     27 H8          11.8290     3.0670    -2.4300 h1         1 YWZ       0.130700
     28 H9          12.7230     1.7260    -2.2520 h1         1 YWZ       0.187700
     29 H10         14.2160     1.2390    -3.2250 h1         1 YWZ       0.187700
     30 H11         14.8420     2.3450    -5.3520 h1         1 YWZ       0.055700
     31 H12         15.9100     2.9700    -4.0580 h1         1 YWZ       0.055700
     32 H14          9.5410     2.9880    -1.2820 ha         1 YWZ       0.165500
     33 H15          7.9080     2.3450    -0.2690 ha         1 YWZ       0.139000
     34 H16          5.1410     0.6350    -3.5900 ha         1 YWZ       0.149000
     35 H17          2.6980     0.8180    -2.9270 ha         1 YWZ       0.148000
     36 F1           1.8760     0.0000     1.5440 f          1 YWZ      -0.283900
     37 C1          14.9180     4.1070    -5.6410 c3         1 YWZ      -0.249600
     38 O6          14.7190     5.3980    -5.0620 os         1 YWZ      -0.280600
     39 C3          14.6820     6.4620    -6.0140 c3         1 YWZ       0.109400
     40 C4          14.4650     7.7910    -5.2860 c3         1 YWZ      -0.394600
     41 O7          15.5940     8.0670    -4.4540 os         1 YWZ      -0.247600
     42 C17         15.4920     9.2910    -3.7250 c3         1 YWZ       0.132400
     43 C18         16.7480     9.4830    -2.8730 c3         1 YWZ      -0.291600
     44 O8          17.8830     9.6440    -3.7260 os         1 YWZ      -0.369600
     45 C20         19.1150     9.8310    -3.0260 c3         1 YWZ       0.075500
     46 C21         20.2120     9.9850    -3.9950 c1         1 YWZ      -0.146100
     47 C22         21.0970    10.0920    -4.7590 c1         1 YWZ      -0.098500
     48 H1          13.8720     4.1650    -5.9160 h1         1 YWZ       0.130700
     49 H2          15.2430     5.0860    -5.3110 h1         1 YWZ       0.130700
     50 H13         15.5780     6.8490    -6.4840 h1         1 YWZ       0.080200
     51 H18         13.9710     5.9460    -6.6480 h1         1 YWZ       0.080200
     52 H19         14.3880     8.6380    -5.9570 h1         1 YWZ       0.169200
     53 H20         15.2290     7.7270    -4.5210 h1         1 YWZ       0.169200
     54 H21         14.7090     9.9660    -4.0500 h1         1 YWZ       0.099200
     55 H22         15.2580     9.2810    -2.6670 h1         1 YWZ       0.099200
     56 H23         17.6600     9.7210    -3.4080 h1         1 YWZ       0.198700
     57 H24         16.5040    10.3050    -2.2110 h1         1 YWZ       0.198700
     58 H25         19.9430     9.1450    -2.8940 h1         1 YWZ       0.131200
     59 H26         18.7250    10.0660    -2.0430 h1         1 YWZ       0.131200
     60 H27         21.6040    10.5670    -5.5900 ha         1 YWZ       0.184500
@<TRIPOS>BOND
     1    16     5 1
     2     5    15 1
     3    15    14 1
     4    14     4 1
     5     4    13 1
     6    13    12 ar
     7    13    17 ar
     8    12    11 ar
     9    17    18 ar
    10    11    10 ar
    11    18    10 ar
    12    10     9 1
    13     8     9 ar
    14     8     7 ar
    15     9    19 ar
    16     7     6 ar
    17    19    20 ar
    18     6    20 ar
    19     6     3 1
    20     3    21 1
    21     1    21 2
    22    21     2 2
    23     7    22 1
    24     8    23 1
    25    11    24 1
    26    12    25 1
    27    14    26 1
    28    14    27 1
    29    15    28 1
    30    15    29 1
    31    16    30 1
    32    16    31 1
    33    17    32 1
    34    18    33 1
    35    19    34 1
    36    20    35 1
    37    21    36 1
    38    16    37 1
    39    37    38 1
    40    38    39 1
    41    39    40 1
    42    40    41 1
    43    41    42 1
    44    42    43 1
    45    43    44 1
    46    44    45 1
    47    45    46 1
    48    46    47 3
    49    37    48 1
    50    37    49 1
    51    39    50 1
    52    39    51 1
    53    40    52 1
    54    40    53 1
    55    42    54 1
    56    42    55 1
    57    43    56 1
    58    43    57 1
    59    45    58 1
    60    45    59 1
    61    47    60 1
@<TRIPOS>SUBSTRUCTURE
     1 YWZ         1 TEMP              0 ****  ****    0 ROOT
