@<TRIPOS>MOLECULE
YX0
   39    40     1     0     0
SMALL
bcc


@<TRIPOS>ATOM
      1 C1           0.0000     0.0000     0.0000 c3         1 YX0       0.374900
      2 C2           1.5310     0.0000     0.0000 c3         1 YX0       0.154100
      3 C3           2.0340     0.0000     1.4470 c3         1 YX0       0.158100
      4 C4           1.4520    -1.2150     2.1780 c3         1 YX0       0.140100
      5 C5          -0.0750    -1.1670     2.0930 c3         1 YX0       0.169100
      6 C6          -0.6620    -2.4080     2.7690 c3         1 YX0       0.004900
      7 O1          -0.4760     1.1940     0.6250 os         1 YX0      -0.421600
      8 O2           2.0090     1.1680    -0.6710 oh         1 YX0      -0.569800
      9 O3           3.4610    -0.0740     1.4580 oh         1 YX0      -0.577800
     10 O4           1.9270    -2.4130     1.5640 oh         1 YX0      -0.565800
     11 O5          -0.4750    -1.1380     0.7220 os         1 YX0      -0.413600
     12 O5'         -4.0240     6.3160     0.2360 oh         1 YX0      -0.474100
     13 C6'         -3.7880     6.8740     2.6480 c3         1 YX0       0.060100
     14 C4'         -3.0650     4.7230     1.6670 cc         1 YX0      -0.035000
     15 C3'         -2.8460     3.6800     0.6510 cc         1 YX0      -0.200000
     16 C2'         -2.2860     2.6330     1.2610 cd         1 YX0       0.063900
     17 C1'         -1.8970     1.3480     0.5770 c3         1 YX0       0.297600
     18 O           -2.1160     2.8860     2.5720 os         1 YX0      -0.132400
     19 N           -2.5860     4.1880     2.8680 na         1 YX0      -0.224500
     20 H1          -0.3590    -0.0470    -1.0210 h2         1 YX0       0.029700
     21 H2           1.8910    -0.8870    -0.5070 h1         1 YX0       0.042700
     22 H3           1.7100     0.9080     1.9410 h1         1 YX0       0.029700
     23 HA           2.3870     0.9220    -1.4990 ho         1 YX0       0.391000
     24 H4           1.7560    -1.1890     3.2170 h1         1 YX0       0.008700
     25 HB           3.8070     0.6070     2.0100 ho         1 YX0       0.391000
     26 H5          -0.4350    -0.2750     2.5910 h1         1 YX0       0.025700
     27 HC           2.5500    -2.8320     2.1340 ho         1 YX0       0.391000
     28 H6C1        -0.4210    -3.2870     2.1840 hc         1 YX0       0.012367
     29 H6C2        -0.2440    -2.5100     3.7630 hc         1 YX0       0.012367
     30 H6C3        -1.7390    -2.3060     2.8390 hc         1 YX0       0.012367
     31 H1'1        -2.2220     1.3760    -0.4560 h1         1 YX0       0.012200
     32 H1'2        -2.3680     0.5130     1.0810 h1         1 YX0       0.012200
     33 H5'         -4.9660     6.3000     0.2020 ho         1 YX0       0.384000
     34 H6'1        -4.4340     6.4120     3.3840 hc         1 YX0       0.003367
     35 H6'2        -2.8180     7.0680     3.0890 hc         1 YX0       0.003367
     36 H6'3        -4.2270     7.8080     2.3180 hc         1 YX0       0.003367
     37 H           -2.5830     4.6360     3.7630 hn         1 YX0       0.335800
     38 H3'         -2.5350     3.9550    -0.3490 ha         1 YX0       0.150000
     39 C5'         -3.6080     5.9400     1.4790 c2         1 YX0      -0.059100
@<TRIPOS>BOND
     1     1     2 1   
     2     1     7 1   
     3     1    11 1   
     4     1    20 1   
     5     2     3 1   
     6     2     8 1   
     7     2    21 1   
     8     3     4 1   
     9     3     9 1   
    10     3    22 1   
    11     4     5 1   
    12     4    10 1   
    13     4    24 1   
    14     5     6 1   
    15     5    11 1   
    16     5    26 1   
    17     6    28 1   
    18     6    29 1   
    19     6    30 1   
    20     7    17 1   
    21     8    23 1   
    22     9    25 1   
    23    10    27 1   
    24    12    33 1   
    25    12    39 1   
    26    13    34 1   
    27    13    35 1   
    28    13    36 1   
    29    13    39 1   
    30    14    15 1   
    31    14    19 1   
    32    14    39 2   
    33    15    16 2   
    34    15    38 1   
    35    16    17 1   
    36    16    18 1   
    37    17    31 1   
    38    17    32 1   
    39    18    19 1   
    40    19    37 1   
@<TRIPOS>SUBSTRUCTURE
     1 YX0         1 TEMP              0 ****  ****    0 ROOT
