@<TRIPOS>MOLECULE
molecule
   39    40     1     0     0
SMALL
bcc


@<TRIPOS>ATOM
      1 C1           0.0000     0.0000     0.0000 c3         1 YX0       0.321900
      2 C2           1.5310     0.0000     0.0000 c3         1 YX0       0.134100
      3 C3           2.0340     0.0000     1.4470 c3         1 YX0       0.124100
      4 C4           1.4520    -1.2150     2.1780 c3         1 YX0       0.105100
      5 C5          -0.0750    -1.1670     2.0930 c3         1 YX0       0.139100
      6 C6          -0.6620    -2.4080     2.7690 c3         1 YX0      -0.084100
      7 O1          -0.4760     1.1940     0.6250 os         1 YX0      -0.429600
      8 O2           2.0090     1.1680    -0.6710 oh         1 YX0      -0.588800
      9 O3           3.4610    -0.0740     1.4580 oh         1 YX0      -0.598800
     10 O4           1.9270    -2.4130     1.5640 oh         1 YX0      -0.586800
     11 O5          -0.4750    -1.1380     0.7220 os         1 YX0      -0.425600
     12 O5'         -4.0240     6.3160     0.2360 oh         1 YX0      -0.500100
     13 C6'         -3.7270     6.9000     2.6350 c3         1 YX0      -0.054900
     14 C4'         -3.0650     4.7230     1.6670 cc         1 YX0       0.125000
     15 C3'         -2.8460     3.6800     0.6510 cc         1 YX0      -0.212000
     16 C2'         -2.2860     2.6330     1.2610 cd         1 YX0       0.055900
     17 C1'         -1.8970     1.3480     0.5770 c3         1 YX0       0.212600
     18 O           -2.1160     2.8860     2.5720 os         1 YX0      -0.044400
     19 N           -2.5860     4.1880     2.8680 na         1 YX0      -0.631500
     20 H1          -0.3590    -0.0470    -1.0210 h2         1 YX0       0.079700
     21 H2           1.8910    -0.8870    -0.5070 h1         1 YX0       0.081700
     22 H3           1.7100     0.9080     1.9410 h1         1 YX0       0.066700
     23 HA           2.4280     0.9180    -1.4770 ho         1 YX0       0.406000
     24 H4           1.7560    -1.1890     3.2170 h1         1 YX0       0.042700
     25 HB           3.8070     0.6160     1.9980 ho         1 YX0       0.406000
     26 H5          -0.4350    -0.2750     2.5910 h1         1 YX0       0.055700
     27 HC           2.5450    -2.8360     2.1370 ho         1 YX0       0.406000
     28 H6C1        -0.1940    -2.5490     3.7350 hc         1 YX0       0.048367
     29 H6C2        -1.7300    -2.2760     2.9010 hc         1 YX0       0.048367
     30 H6C3        -0.4800    -3.2770     2.1490 hc         1 YX0       0.048367
     31 H1'1        -2.2220     1.3760    -0.4560 h1         1 YX0       0.055200
     32 H1'2        -2.3680     0.5130     1.0810 h1         1 YX0       0.055200
     33 H5'         -3.4160     6.9410    -0.1220 ho         1 YX0       0.402000
     34 H6'1        -2.7400     7.1190     3.0250 hc         1 YX0       0.039033
     35 H6'2        -4.3260     6.4370     3.4090 hc         1 YX0       0.039033
     36 H6'3        -4.2000     7.8190     2.3130 hc         1 YX0       0.039033
     37 H           -2.5830     4.6360     3.7630 hn         1 YX0       0.513800
     38 H3'         -3.5790     3.5230    -0.1310 ha         1 YX0       0.171000
     39 C5'         -3.6080     5.9400     1.4790 c2         1 YX0      -0.066100
@<TRIPOS>BOND
     1     1     2 1
     2     1     7 1
     3     1    11 1
     4     2     3 1
     5     2     8 1
     6     3     4 1
     7     3     9 1
     8     4     5 1
     9     4    10 1
    10     5     6 1
    11     5    11 1
    12     7    17 1
    13    12    39 1
    14    39    13 1
    15    39    14 2
    16    14    15 1
    17    14    19 1
    18    15    16 2
    19    16    17 1
    20    16    18 1
    21    18    19 1
    22     1    20 1
    23     2    21 1
    24     3    22 1
    25     8    23 1
    26     4    24 1
    27     9    25 1
    28     5    26 1
    29    10    27 1
    30     6    28 1
    31     6    29 1
    32     6    30 1
    33    17    31 1
    34    17    32 1
    35    12    33 1
    36    13    34 1
    37    13    35 1
    38    13    36 1
    39    15    38 1
    40    19    37 1
@<TRIPOS>SUBSTRUCTURE
     1 YX0         1 TEMP              0 ****  ****    0 ROOT
