@<TRIPOS>MOLECULE
YX1
   35    35     1     0     0
SMALL
bcc


@<TRIPOS>ATOM
      1 O3           0.0000     0.0000     0.0000 oh         1 YX1      -0.578800
      2 C3           1.4300     0.0000     0.0000 c3         1 YX1       0.163100
      3 C4           1.9420     0.0000     1.4430 c3         1 YX1       0.133100
      4 O4           1.5310     1.2040     2.0950 oh         1 YX1      -0.586800
      5 C5           3.4700    -0.0790     1.4340 c3         1 YX1       0.174100
      6 C6           3.9870    -0.1390     2.8720 c3         1 YX1       0.224400
      7 O6           5.4160    -0.0960     2.8680 oh         1 YX1      -0.583800
      8 O5           3.8810    -1.2540     0.7310 os         1 YX1      -0.414600
      9 C1           3.4700    -1.2880    -0.6370 c3         1 YX1       0.390900
     10 O1           3.9520    -2.4870    -1.2500 oh         1 YX1      -0.541800
     11 C2           1.9410    -1.2570    -0.7110 c3         1 YX1      -0.018300
     12 N2           1.5190    -1.2320    -2.1140 ns         1 YX1      -0.180900
     13 CAM          1.3930    -2.3850    -2.8000 c          1 YX1       0.619100
     14 OAG          1.6300    -3.4460    -2.2550 o          1 YX1      -0.673100
     15 NAN          1.0040    -2.3630    -4.0900 n          1 YX1      -0.107200
     16 CAH          0.8670    -3.6160    -4.8370 c3         1 YX1       0.092300
     17 NAO          0.7380    -1.1710    -4.7030 n7         1 YX1      -0.212700
     18 OAP          1.9420    -0.6230    -5.3290 oh         1 YX1      -0.488300
     19 H3          -0.3140     0.8600    -0.2240 ho         1 YX1       0.396000
     20 HA           1.7970     0.8800    -0.5140 h1         1 YX1       0.013700
     21 H4           1.5390    -0.8580     1.9680 h1         1 YX1       0.030700
     22 H2           1.5390    -2.1360    -0.2220 h1         1 YX1       0.085700
     23 HB           0.8500     1.0080     2.7160 ho         1 YX1       0.400000
     24 H5           3.8720     0.7950     0.9370 h1         1 YX1       0.024700
     25 H6C1         3.6020     0.7060     3.4300 h1         1 YX1      -0.002300
     26 H6C2         3.6550    -1.0600     3.3370 h1         1 YX1      -0.002300
     27 H6           5.7310    -0.0290     3.7540 ho         1 YX1       0.389000
     28 H1           3.8730    -0.4260    -1.1550 h2         1 YX1      -0.014300
     29 HC           4.8950    -2.4740    -1.2680 ho         1 YX1       0.393000
     30 HD           1.2860    -0.3620    -2.5500 hn         1 YX1       0.181500
     31 HAH1         0.5280    -3.4020    -5.8430 h1         1 YX1       0.012367
     32 HAH2         1.8260    -4.1180    -4.8780 h1         1 YX1       0.012367
     33 HAH3         0.1460    -4.2540    -4.3410 h1         1 YX1       0.012367
     34 HAO          0.0310    -1.3040    -5.3980 hn         1 YX1       0.255800
     35 HAP          1.7000     0.0670    -5.9240 ho         1 YX1       0.400000
@<TRIPOS>BOND
     1     1     2 1   
     2     1    19 1   
     3     2     3 1   
     4     2    11 1   
     5     2    20 1   
     6     3     4 1   
     7     3     5 1   
     8     3    21 1   
     9     4    23 1   
    10     5     6 1   
    11     5     8 1   
    12     5    24 1   
    13     6     7 1   
    14     6    25 1   
    15     6    26 1   
    16     7    27 1   
    17     8     9 1   
    18     9    10 1   
    19     9    11 1   
    20     9    28 1   
    21    10    29 1   
    22    11    12 1   
    23    11    22 1   
    24    12    13 1   
    25    12    30 1   
    26    13    14 2   
    27    13    15 1   
    28    15    16 1   
    29    15    17 1   
    30    16    31 1   
    31    16    32 1   
    32    16    33 1   
    33    17    18 1   
    34    17    34 1   
    35    18    35 1   
@<TRIPOS>SUBSTRUCTURE
     1 YX1         1 TEMP              0 ****  ****    0 ROOT
