@<TRIPOS>MOLECULE
YY1
   12    12     1     0     0
SMALL
bcc


@<TRIPOS>ATOM
      1 CAG         0.0270   -0.0710   -0.0080 c3        1 YY1     -0.124400
      2 CAE         1.5010    0.0510   -0.0030 cc        1 YY1      0.365800
      3 NAA         2.2840    0.0690    1.1670 na        1 YY1     -0.425700
      4 NAD         2.3470    0.1640   -1.0760 nd        1 YY1     -0.336000
      5 NAC         3.5850    0.2490   -0.6520 nd        1 YY1     -0.357000
      6 CAB         3.6060    0.1960    0.7230 cc        1 YY1      0.434800
      7 SAF         4.9390    0.2650    1.7560 sh        1 YY1     -0.298100
      8 H1         -0.3540   -0.0600   -1.0600 hc        1 YY1      0.063033
      9 H2         -0.2840   -1.0300    0.4770 hc        1 YY1      0.063033
     10 H3         -0.4340    0.7830    0.5490 hc        1 YY1      0.063033
     11 H4          1.9740    0.0060    2.1000 hn        1 YY1      0.316700
     12 H5          5.8980    0.3800    0.8410 hs        1 YY1      0.235800
@<TRIPOS>BOND
     1    1    2 1   
     2    1    8 1   
     3    1    9 1   
     4    1   10 1   
     5    2    3 1   
     6    2    4 2   
     7    3    6 1   
     8    3   11 1   
     9    4    5 1   
    10    5    6 2   
    11    6    7 1   
    12    7   12 1   
@<TRIPOS>SUBSTRUCTURE
     1 YY1         1 TEMP              0 ****  ****    0 ROOT
