@<TRIPOS>MOLECULE
molecule
   12    12     1     0     0
SMALL
bcc


@<TRIPOS>ATOM
      1 CAG          0.0000     0.0000     0.0000 c3         1 YY1      -0.109400
      2 CAE          1.5070     0.0000     0.0000 cc         1 YY1       0.371800
      3 NAA          2.3170     0.0000     1.1020 na         1 YY1      -0.420700
      4 NAD          2.2790    -0.0040    -1.0500 nd         1 YY1      -0.352000
      5 NAC          3.5130    -0.0020    -0.6890 nd         1 YY1      -0.332000
      6 CAB          3.5950     0.0010     0.6210 cc         1 YY1       0.468800
      7 SAF          5.0740     0.0010     1.5790 sh         1 YY1      -0.347100
      8 H1          -0.3610    -0.8850     0.5090 hc         1 YY1       0.060700
      9 H2          -0.3610     0.0020    -1.0210 hc         1 YY1       0.060700
     10 H3          -0.3610     0.8840     0.5120 hc         1 YY1       0.060700
     11 H4           2.0320     0.0020     2.0610 hn         1 YY1       0.315700
     12 H5           5.8720     0.9760     1.1610 hs         1 YY1       0.221800
@<TRIPOS>BOND
     1     1     2 1
     2     2     4 2
     3     2     3 1
     4     4     5 1
     5     5     6 2
     6     3     6 1
     7     6     7 1
     8     1     8 1
     9     1     9 1
    10     1    10 1
    11     3    11 1
    12     7    12 1
@<TRIPOS>SUBSTRUCTURE
     1 YY1         1 TEMP              0 ****  ****    0 ROOT
