@<TRIPOS>MOLECULE
molecule
   42    42     1     0     0
SMALL
bcc


@<TRIPOS>ATOM
      1 CAQ          0.0000     0.0000     0.0000 c3         1 YY2      -0.102100
      2 CAP          1.5300     0.0000     0.0000 c3         1 YY2       0.125400
      3 CAR          2.0400     0.0000     1.4420 c3         1 YY2      -0.102100
      4 CAS          2.0410    -1.2490    -0.7210 c3         1 YY2      -0.102100
      5 NAO          2.0180     1.1960    -0.6910 ns         1 YY2      -0.576900
      6 CAM          1.6930     2.4200    -0.2310 c          1 YY2       0.659100
      7 OAN          0.9950     2.5320     0.7560 o          1 YY2      -0.566100
      8 CAL          2.1950     3.6510    -0.9410 c3         1 YY2       0.066400
      9 OAG          1.7190     4.8170    -0.2670 os         1 YY2      -0.284900
     10 CAF          2.0850     6.0210    -0.7840 ca         1 YY2       0.143100
     11 CAE          3.2540     6.6340    -0.3600 ca         1 YY2       0.036400
     12 Cl1          4.2530     5.8640     0.8320 cl         1 YY2      -0.027400
     13 CAD          3.6240     7.8580    -0.8870 ca         1 YY2      -0.130000
     14 CAC          2.8290     8.4740    -1.8370 ca         1 YY2      -0.160300
     15 CAK          3.2360     9.8080    -2.4080 c3         1 YY2       0.162100
     16 NAT          4.0710     9.5970    -3.5980 nz         1 YY2      -0.810600
     17 CAB          1.6630     7.8680    -2.2650 ca         1 YY2      -0.202000
     18 CAA          1.2890     6.6380    -1.7440 ca         1 YY2       0.150100
     19 OAH          0.1440     6.0390    -2.1690 os         1 YY2      -0.285900
     20 CAI         -0.6230     6.7310    -3.1560 c3         1 YY2       0.121700
     21 H1          -0.3610     0.3350    -0.9650 hc         1 YY2       0.048256
     22 H2          -0.3610    -1.0030     0.1920 hc         1 YY2       0.048256
     23 H3          -0.3610     0.6680     0.7730 hc         1 YY2       0.048256
     24 H4           1.4380     0.6740     2.0390 hc         1 YY2       0.048256
     25 H5           3.0730     0.3270     1.4600 hc         1 YY2       0.048256
     26 H6           1.9720    -1.0010     1.8500 hc         1 YY2       0.048256
     27 H7           3.1240    -1.2470    -0.7240 hc         1 YY2       0.048256
     28 H8           1.6830    -2.1340    -0.2090 hc         1 YY2       0.048256
     29 H9           1.6770    -1.2510    -1.7420 hc         1 YY2       0.048256
     30 H10          2.6090     1.1040    -1.4940 hn         1 YY2       0.308500
     31 H11          3.2790     3.6510    -0.9410 h1         1 YY2       0.048200
     32 H12          1.8340     3.6510    -1.9620 h1         1 YY2       0.048200
     33 H13          4.5380     8.3360    -0.5550 ha         1 YY2       0.150000
     34 H14          2.3510    10.3690    -2.6820 hx         1 YY2       0.115200
     35 H15          3.7990    10.3620    -1.6660 hx         1 YY2       0.115200
     36 H16          3.5170     9.1950    -4.3280 hn         1 YY2       0.455133
     37 H17          4.4420    10.4740    -3.9060 hn         1 YY2       0.455133
     38 H19          1.0430     8.3510    -3.0110 ha         1 YY2       0.145000
     39 H20         -0.9120     7.7020    -2.7740 h1         1 YY2       0.051700
     40 H21         -1.5110     6.1570    -3.3920 h1         1 YY2       0.051700
     41 H22         -0.0280     6.8580    -4.0520 h1         1 YY2       0.051700
     42 HAT3         4.8220     8.9740    -3.3730 hn         1 YY2       0.455133
@<TRIPOS>BOND
     1    12    11 1
     2    11    13 ar
     3    11    10 ar
     4    13    14 ar
     5     8     9 1
     6     8     6 1
     7    16    15 1
     8     9    10 1
     9    10    18 ar
    10    14    15 1
    11    14    17 ar
    12     7     6 2
    13     6     5 1
    14    18    17 ar
    15    18    19 1
    16     5     2 1
    17     1     2 1
    18    19    20 1
    19     2     4 1
    20     2     3 1
    21     1    21 1
    22     1    22 1
    23     1    23 1
    24     3    24 1
    25     3    25 1
    26     3    26 1
    27     4    27 1
    28     4    28 1
    29     4    29 1
    30     5    30 1
    31     8    31 1
    32     8    32 1
    33    13    33 1
    34    15    34 1
    35    15    35 1
    36    16    36 1
    37    16    37 1
    38    17    38 1
    39    20    39 1
    40    20    40 1
    41    20    41 1
    42    42    16 1
@<TRIPOS>SUBSTRUCTURE
     1 YY2         1 TEMP              0 ****  ****    0 ROOT
