@<TRIPOS>MOLECULE
molecule
   70    73     1     0     0
SMALL
bcc


@<TRIPOS>ATOM
      1 C13          0.0000     0.0000     0.0000 c3         1 YY3       0.151100
      2 N2           1.4680     0.0000     0.0000 n3         1 YY3      -0.736600
      3 C12          1.9950     0.0000     1.3710 c3         1 YY3       0.151100
      4 C11          1.9950    -1.1370    -0.7660 c3         1 YY3       0.159800
      5 C10          1.6320    -0.9710    -2.2430 c3         1 YY3       0.169800
      6 N1           2.1590    -2.1080    -3.0080 nh         1 YY3      -0.623000
      7 C28          3.6280    -2.1070    -3.0080 c3         1 YY3       0.150100
      8 C3           1.9010    -1.0290    -5.1530 ca         1 YY3      -0.220000
      9 C4           1.4040    -1.0300    -6.4470 ca         1 YY3       0.090100
     10 O1           1.6450     0.0290    -7.2670 os         1 YY3      -0.337900
     11 C14          2.4140     1.1060    -6.7290 c3         1 YY3       0.132700
     12 C2           1.6570    -2.1080    -4.3160 ca         1 YY3       0.057600
     13 C1           0.9130    -3.1940    -4.7780 ca         1 YY3       0.061600
     14 N            0.6660    -4.2850    -3.9320 ns         1 YY3      -0.453100
     15 C7          -0.5050    -4.9460    -4.0120 c          1 YY3       0.659300
     16 O           -1.3130    -4.6540    -4.8740 o          1 YY3      -0.607100
     17 C8          -0.8070    -6.0250    -3.0580 ce         1 YY3      -0.248200
     18 C9          -1.9620    -6.6790    -3.1370 c2         1 YY3      -0.134000
     19 C6           0.4170    -3.1930    -6.0730 ca         1 YY3      -0.108000
     20 C5           0.6610    -2.1130    -6.9090 ca         1 YY3       0.154600
     21 N3           0.1600    -2.1120    -8.2190 nu         1 YY3      -0.738300
     22 C15         -0.1100    -3.3100    -8.8580 ca         1 YY3       0.944900
     23 N5          -0.6930    -3.2900   -10.0460 nb         1 YY3      -0.795000
     24 N4           0.2280    -4.4480    -8.2660 nb         1 YY3      -0.797000
     25 C16         -0.0120    -5.6150    -8.8450 ca         1 YY3       0.500200
     26 C17         -0.6240    -5.6430   -10.0830 ca         1 YY3      -0.444600
     27 C18         -0.9650    -4.4270   -10.6870 ca         1 YY3       0.613100
     28 C19         -1.6160    -4.4040   -12.0140 cc         1 YY3      -0.235000
     29 C26         -2.0250    -3.2100   -12.7720 ca         1 YY3      -0.067800
     30 C25         -1.9510    -1.8390   -12.5340 ca         1 YY3      -0.063000
     31 C24         -2.4350    -0.9610   -13.4640 ca         1 YY3      -0.159000
     32 C23         -2.9990    -1.4250   -14.6430 ca         1 YY3      -0.109000
     33 C22         -3.0830    -2.7760   -14.8970 ca         1 YY3      -0.144000
     34 C21         -2.5960    -3.6870   -13.9650 ca         1 YY3      -0.047200
     35 N6          -2.5350    -5.0630   -13.9300 na         1 YY3      -0.063400
     36 C27         -3.0250    -5.9510   -14.9870 c3         1 YY3       0.038600
     37 C20         -1.9490    -5.4800   -12.7740 cd         1 YY3      -0.064100
     38 H1          -0.3610    -1.0210     0.0350 h1         1 YY3       0.032533
     39 H2          -0.3610     0.5410     0.8660 h1         1 YY3       0.032533
     40 H3          -0.3610     0.4800    -0.9010 h1         1 YY3       0.032533
     41 H5           1.5850     0.8420     1.9160 h1         1 YY3       0.032533
     42 H6           1.7130    -0.9220     1.8660 h1         1 YY3       0.032533
     43 H7           3.0750     0.0800     1.3430 h1         1 YY3       0.032533
     44 H8           3.0730    -1.1750    -0.6620 h1         1 YY3       0.038700
     45 H9           1.5640    -2.0570    -0.3890 h1         1 YY3       0.038700
     46 H10          2.0630    -0.0510    -2.6190 h1         1 YY3       0.047200
     47 H11          0.5540    -0.9340    -2.3470 h1         1 YY3       0.047200
     48 H12          3.9890    -2.6040    -3.9000 h1         1 YY3       0.035700
     49 H13          3.9880    -1.0860    -2.9920 h1         1 YY3       0.035700
     50 H14          3.9890    -2.6310    -2.1310 h1         1 YY3       0.035700
     51 H15          2.5090    -0.2020    -4.8070 ha         1 YY3       0.141000
     52 H16          2.5480     1.8680    -7.4870 h1         1 YY3       0.040367
     53 H17          3.3830     0.7360    -6.4140 h1         1 YY3       0.040367
     54 H18          1.8960     1.5300    -5.8780 h1         1 YY3       0.040367
     55 H19          1.3790    -4.6050    -3.3080 hn         1 YY3       0.334500
     56 H20         -0.0870    -6.2860    -2.2920 ha         1 YY3       0.126000
     57 H22         -2.1840    -7.4730    -2.4350 ha         1 YY3       0.129000
     58 H23         -2.6820    -6.4170    -3.9040 ha         1 YY3       0.129000
     59 H25         -0.1610    -4.0360    -6.4320 ha         1 YY3       0.214000
     60 H26         -0.0320    -1.2450    -8.6800 hn         1 YY3       0.475800
     61 H27          0.2670    -6.5380    -8.3510 h4         1 YY3       0.025100
     62 H28         -0.8310    -6.5850   -10.5780 ha         1 YY3       0.136000
     63 H29         -1.5120    -1.4700   -11.6150 ha         1 YY3       0.154000
     64 H30         -2.3760     0.1050   -13.2780 ha         1 YY3       0.129000
     65 H31         -3.3790    -0.7180   -15.3710 ha         1 YY3       0.128000
     66 H32         -3.5250    -3.1290   -15.8210 ha         1 YY3       0.123000
     67 H33         -2.4720    -5.7660   -15.9000 h1         1 YY3       0.050367
     68 H34         -2.8880    -6.9830   -14.6850 h1         1 YY3       0.050367
     69 H35         -4.0780    -5.7620   -15.1580 h1         1 YY3       0.050367
     70 H36         -1.7730    -6.5140   -12.5020 h4         1 YY3       0.169000
@<TRIPOS>BOND
     1     1     2 1
     2     2     4 1
     3     2     3 1
     4     5     4 1
     5     5     6 1
     6     7     6 1
     7     6    12 1
     8    11    10 1
     9     8    12 ar
    10     8     9 ar
    11    12    13 ar
    12    10     9 1
    13     9    20 ar
    14    13    14 1
    15    13    19 ar
    16    14    15 1
    17    15    17 1
    18    15    16 2
    19    20    19 ar
    20    20    21 1
    21    17    18 2
    22    21    22 1
    23    22    23 ar
    24    22    24 ar
    25    31    30 ar
    26    31    32 ar
    27    23    27 ar
    28    24    25 ar
    29    30    29 ar
    30    32    33 ar
    31    27    28 1
    32    27    26 ar
    33    29    28 1
    34    29    34 ar
    35    25    26 ar
    36    28    37 2
    37    33    34 ar
    38    34    35 1
    39    37    35 1
    40    35    36 1
    41     1    38 1
    42     1    39 1
    43     1    40 1
    44     3    41 1
    45     3    42 1
    46     3    43 1
    47     4    44 1
    48     4    45 1
    49     5    46 1
    50     5    47 1
    51     7    48 1
    52     7    49 1
    53     7    50 1
    54     8    51 1
    55    11    52 1
    56    11    53 1
    57    11    54 1
    58    14    55 1
    59    17    56 1
    60    18    57 1
    61    18    58 1
    62    19    59 1
    63    21    60 1
    64    25    61 1
    65    26    62 1
    66    30    63 1
    67    31    64 1
    68    32    65 1
    69    33    66 1
    70    36    67 1
    71    36    68 1
    72    36    69 1
    73    37    70 1
@<TRIPOS>SUBSTRUCTURE
     1 YY3         1 TEMP              0 ****  ****    0 ROOT
