@<TRIPOS>MOLECULE
YY4
   76    82     1     0     0
SMALL
bcc


@<TRIPOS>ATOM
      1 CBB          0.0000     0.0000     0.0000 c3         1 YY4       0.055500
      2 OAZ          1.4290     0.0000     0.0000 os         1 YY4      -0.177000
      3 CAA          2.0460     0.0000     1.2110 ca         1 YY4       0.158500
      4 CAB          3.4310     0.0000     1.2840 ca         1 YY4      -0.181500
      5 ClX          4.3770    -0.0010    -0.1710 cl         1 YY4       0.091500
      6 CAF          1.2900     0.0060     2.3750 ca         1 YY4      -0.299000
      7 CAE          1.9180     0.0080     3.6110 ca         1 YY4       0.158500
      8 OBA          1.1760     0.0150     4.7490 os         1 YY4      -0.177000
      9 CBC         -0.2460     0.0190     4.5980 c3         1 YY4       0.055500
     10 CAD          3.3030     0.0030     3.6860 ca         1 YY4      -0.181500
     11 ClY          4.0880     0.0040     5.2340 cl         1 YY4       0.091500
     12 CAC          4.0610     0.0000     2.5220 ca         1 YY4       0.029000
     13 NAG          5.4590    -0.0050     2.5970 n          1 YY4       0.065000
     14 CAL          6.1350    -1.1680     2.6320 c2         1 YY4       0.213000
     15 OBQ          5.5040    -2.2050     2.5970 o          1 YY4      -0.433000
     16 CAH          6.2100     1.2630     2.6320 c3         1 YY4       0.005000
     17 C5           7.7130     1.1550     2.7130 c2         1 YY4      -0.320000
     18 C6           8.5260     2.2640     2.7520 c2         1 YY4       0.070000
     19 N1           9.8400     2.0860     2.8220 n2         1 YY4      -0.186000
     20 C2          10.3600     0.8670     2.8550 c2         1 YY4       0.016000
     21 NAQ         11.7360     0.7280     2.9290 nu         1 YY4       0.204000
     22 CAR         12.5460     1.8560     3.0860 ca         1 YY4      -0.088000
     23 CAS         12.0950     2.9380     3.8300 ca         1 YY4      -0.118500
     24 CAT         12.8970     4.0520     3.9840 ca         1 YY4      -0.082000
     25 CAU         14.1490     4.0890     3.3980 ca         1 YY4      -0.117000
     26 CAV         14.6020     3.0140     2.6580 ca         1 YY4      -0.082000
     27 CAW         13.8070     1.8950     2.5050 ca         1 YY4      -0.118500
     28 N3           9.6050    -0.2220     2.8180 n2         1 YY4      -0.201000
     29 C4           8.2830    -0.1180     2.7470 c2         1 YY4       0.056000
     30 NAK          7.4720    -1.2380     2.7030 n          1 YY4       0.160000
     31 CBD          8.1010    -2.5600     2.7360 c3         1 YY4      -0.082000
     32 CBH          7.6020    -3.4430     1.5650 c3         1 YY4      -0.095000
     33 CBE          7.6210    -3.3750     3.9660 c3         1 YY4      -0.140000
     34 CBF          7.7900    -4.8350     3.5000 c3         1 YY4      -0.049000
     35 NBG          7.7890    -4.8280     2.0300 n3         1 YY4      -0.035000
     36 CBI          7.9330    -5.9100     1.2390 c3         1 YY4       0.388000
     37 OBK          7.9140    -5.7860     0.0290 o          1 YY4      -0.448000
     38 CBJ          8.1120    -7.2410     1.8390 c2         1 YY4      -0.173000
     39 CBL          8.2550    -8.3090     1.0590 c2         1 YY4      -0.094000
     40 CBM          8.4380    -9.6720     1.6730 DU         1 YY4      -0.025000
     41 NBN          7.4150   -10.5880     1.1480 n3         1 YY4      -0.094000
     42 CBP          7.6080   -10.8230    -0.2890 c3         1 YY4      -0.091500
     43 CBO          7.4110   -11.8540     1.8940 c3         1 YY4      -0.091500
     44 H1          -0.3610    -0.8830     0.5140 h1         1 YY4       0.039500
     45 H2          -0.3610     0.8860     0.5080 h1         1 YY4       0.039500
     46 H3          -0.3610    -0.0030    -1.0210 h1         1 YY4       0.039500
     47 H4           0.2080     0.0090     2.3170 ha         1 YY4       0.145000
     48 H5          -0.5480     0.9020     4.0490 h1         1 YY4       0.039500
     49 H6          -0.5540    -0.8670     4.0560 h1         1 YY4       0.039500
     50 H7          -0.7130     0.0240     5.5760 h1         1 YY4       0.039500
     51 H8           5.9640     1.8210     1.7370 h1         1 YY4       0.061000
     52 H9           5.8700     1.8280     3.4910 h1         1 YY4       0.061000
     53 H10          8.1030     3.2610     2.7250 h4         1 YY4       0.123000
     54 H11         12.1490    -0.1830     2.8870 hn         1 YY4       0.089000
     55 H12         11.1140     2.9090     4.2890 ha         1 YY4       0.120000
     56 H13         12.5450     4.8970     4.5630 ha         1 YY4       0.102000
     57 H14         14.7760     4.9650     3.5180 ha         1 YY4       0.102000
     58 H15         15.5840     3.0460     2.2020 ha         1 YY4       0.102000
     59 H16         14.1630     1.0520     1.9240 ha         1 YY4       0.120000
     60 H17          9.1820    -2.4820     2.7240 h1         1 YY4       0.117000
     61 H18          8.1970    -3.2610     0.6780 h1         1 YY4       0.095000
     62 H19          6.5540    -3.2500     1.3700 h1         1 YY4       0.095000
     63 H20          8.2490    -3.1730     4.8260 hc         1 YY4       0.082500
     64 H21          6.5820    -3.1610     4.1830 hc         1 YY4       0.082500
     65 H22          6.9650    -5.4350     3.8650 h1         1 YY4       0.055000
     66 H23          8.7300    -5.2310     3.8650 h1         1 YY4       0.055000
     67 H24          7.1810    -6.8780     1.4220 DU         1 YY4       0.023000
     68 H25          7.4530    -8.9040     1.4790 DU         1 YY4       0.100000
     69 H26          9.4230   -10.0500     1.4250 ha         1 YY4       0.058500
     70 H27          8.3400    -9.5990     2.7490 ha         1 YY4       0.058500
     71 H29          7.0200   -11.6800    -0.5960 h1         1 YY4       0.045667
     72 H30          8.6560   -11.0140    -0.4870 h1         1 YY4       0.045667
     73 H31          7.2890    -9.9490    -0.8440 h1         1 YY4       0.045667
     74 H32          6.6300   -12.4980     1.5070 h1         1 YY4       0.045667
     75 H33          7.2270   -11.6550     2.9430 h1         1 YY4       0.045667
     76 H34          8.3710   -12.3430     1.7810 h1         1 YY4       0.045667
@<TRIPOS>BOND
     1     1     2 1   
     2     1    44 1   
     3     1    45 1   
     4     1    46 1   
     5     2     3 1   
     6     3     4 1   
     7     3     6 1   
     8     4     5 1   
     9     4    12 1   
    10     6     7 1   
    11     6    47 1   
    12     7     8 1   
    13     7    10 1   
    14     8     9 1   
    15     9    48 1   
    16     9    49 1   
    17     9    50 1   
    18    10    11 1   
    19    10    12 1   
    20    12    13 1   
    21    13    14 1   
    22    13    16 1   
    23    14    15 1   
    24    14    30 1   
    25    16    17 1   
    26    16    51 1   
    27    16    52 1   
    28    17    18 1   
    29    17    29 1   
    30    18    19 1   
    31    18    53 1   
    32    19    20 1   
    33    20    21 1   
    34    20    28 1   
    35    21    22 1   
    36    21    54 1   
    37    22    23 1   
    38    22    27 1   
    39    23    24 1   
    40    23    55 1   
    41    24    25 1   
    42    24    56 1   
    43    25    26 1   
    44    25    57 1   
    45    26    27 1   
    46    26    58 1   
    47    27    59 1   
    48    28    29 1   
    49    29    30 1   
    50    30    31 1   
    51    31    32 1   
    52    31    33 1   
    53    31    60 1   
    54    32    35 1   
    55    32    61 1   
    56    32    62 1   
    57    33    34 1   
    58    33    63 1   
    59    33    64 1   
    60    34    35 1   
    61    34    65 1   
    62    34    66 1   
    63    35    36 1   
    64    36    37 1   
    65    36    38 1   
    66    36    67 1   
    67    38    39 1   
    68    38    67 1   
    69    39    40 1   
    70    39    68 1   
    71    40    41 1   
    72    40    68 1   
    73    40    69 1   
    74    40    70 1   
    75    41    42 1   
    76    41    43 1   
    77    42    71 1   
    78    42    72 1   
    79    42    73 1   
    80    43    74 1   
    81    43    75 1   
    82    43    76 1   
@<TRIPOS>SUBSTRUCTURE
     1 YY4         1 TEMP              0 ****  ****    0 ROOT
