@<TRIPOS>MOLECULE
molecule
   76    80     1     0     0
SMALL
bcc


@<TRIPOS>ATOM
      1 CBB          0.0000     0.0000     0.0000 c3         1 YY4       0.126700
      2 OAZ          1.4290     0.0000     0.0000 os         1 YY4      -0.306900
      3 CAA          2.0460     0.0000     1.2110 ca         1 YY4       0.191600
      4 CAB          3.4310     0.0000     1.2840 ca         1 YY4      -0.028100
      5 ClX          4.3770    -0.0010    -0.1710 cl         1 YY4      -0.070400
      6 CAF          1.2900     0.0060     2.3750 ca         1 YY4      -0.299000
      7 CAE          1.9180     0.0080     3.6110 ca         1 YY4       0.191600
      8 OBA          1.1760     0.0150     4.7490 os         1 YY4      -0.306900
      9 CBC         -0.2460     0.0190     4.5980 c3         1 YY4       0.126700
     10 CAD          3.3030     0.0030     3.6860 ca         1 YY4      -0.028100
     11 ClY          4.0880     0.0040     5.2340 cl         1 YY4      -0.070400
     12 CAC          4.0610     0.0000     2.5220 ca         1 YY4       0.152600
     13 NAG          5.4590    -0.0050     2.5970 n          1 YY4      -0.402000
     14 CAL          6.1350    -1.1680     2.6320 c          1 YY4       0.838500
     15 OBQ          5.5040    -2.2050     2.5970 o          1 YY4      -0.651500
     16 CAH          6.2100     1.2630     2.6320 c3         1 YY4       0.172300
     17 C5           7.7130     1.1550     2.7130 ca         1 YY4      -0.445900
     18 C6           8.5260     2.2640     2.7520 ca         1 YY4       0.533200
     19 N1           9.8400     2.0860     2.8220 nb         1 YY4      -0.803000
     20 C2          10.3600     0.8670     2.8550 ca         1 YY4       0.970900
     21 NAQ         11.7360     0.7280     2.9290 nu         1 YY4      -0.749300
     22 CAR         12.5460     1.8560     3.0860 ca         1 YY4       0.157600
     23 CAS         12.0950     2.9380     3.8300 ca         1 YY4      -0.143500
     24 CAT         12.8970     4.0520     3.9840 ca         1 YY4      -0.111500
     25 CAU         14.1490     4.0890     3.3980 ca         1 YY4      -0.146000
     26 CAV         14.6020     3.0140     2.6580 ca         1 YY4      -0.111500
     27 CAW         13.8070     1.8950     2.5050 ca         1 YY4      -0.143500
     28 N3           9.6050    -0.2220     2.8180 nb         1 YY4      -0.839000
     29 C4           8.2830    -0.1180     2.7470 ca         1 YY4       0.647200
     30 NAK          7.4720    -1.2380     2.7030 n          1 YY4      -0.432300
     31 CBD          8.1010    -2.5600     2.7360 c3         1 YY4       0.101700
     32 CBH          7.6020    -3.4430     1.5650 c3         1 YY4       0.083000
     33 CBE          7.6210    -3.3750     3.9660 c3         1 YY4      -0.111400
     34 CBF          7.7900    -4.8350     3.5000 c3         1 YY4       0.102000
     35 NBG          7.7890    -4.8280     2.0300 n          1 YY4      -0.486800
     36 CBI          7.9330    -5.9100     1.2390 c          1 YY4       0.686300
     37 OBK          7.9140    -5.7860     0.0290 o          1 YY4      -0.617100
     38 CBJ          8.1120    -7.2410     1.8390 ce         1 YY4      -0.243200
     39 CBL          8.2550    -8.3090     1.0590 c2         1 YY4      -0.081200
     40 CBM          8.4380    -9.6720     1.6730 c3         1 YY4       0.185000
     41 NBN          7.4150   -10.5880     1.1480 n3         1 YY4      -0.724600
     42 CBP          7.6080   -10.8230    -0.2890 c3         1 YY4       0.149100
     43 CBO          7.4110   -11.8540     1.8940 c3         1 YY4       0.149100
     44 H1          -0.3610    -0.8840     0.5120 h1         1 YY4       0.045867
     45 H2          -0.3610    -0.0010    -1.0210 h1         1 YY4       0.045867
     46 H3          -0.3610     0.8850     0.5100 h1         1 YY4       0.045867
     47 H4           0.2080     0.0160     2.3170 ha         1 YY4       0.154000
     48 H5          -0.5540    -0.8690     4.0590 h1         1 YY4       0.045867
     49 H6          -0.7130     0.0280     5.5760 h1         1 YY4       0.045867
     50 H7          -0.5470     0.9010     4.0460 h1         1 YY4       0.045867
     51 H8           5.8700     1.8280     3.4910 h1         1 YY4       0.054700
     52 H9           5.9640     1.8210     1.7370 h1         1 YY4       0.054700
     53 H10          8.1030     3.2610     2.7250 h4         1 YY4       0.036100
     54 H11         12.1500    -0.1830     2.8850 hn         1 YY4       0.467800
     55 H12         11.1140     2.9090     4.2890 ha         1 YY4       0.143000
     56 H13         12.5450     4.8970     4.5630 ha         1 YY4       0.131500
     57 H14         14.7760     4.9650     3.5180 ha         1 YY4       0.129000
     58 H15         15.5840     3.0460     2.2020 ha         1 YY4       0.131500
     59 H16         14.1630     1.0520     1.9240 ha         1 YY4       0.143000
     60 H17          9.1820    -2.4820     2.7240 h1         1 YY4       0.107700
     61 H18          8.1970    -3.2610     0.6780 h1         1 YY4       0.080700
     62 H19          6.5540    -3.2500     1.3700 h1         1 YY4       0.080700
     63 H20          6.5820    -3.1610     4.1830 hc         1 YY4       0.071700
     64 H21          8.2490    -3.1730     4.8260 hc         1 YY4       0.071700
     65 H22          8.7300    -5.2310     3.8650 h1         1 YY4       0.043200
     66 H23          6.9650    -5.4350     3.8650 h1         1 YY4       0.043200
     67 H24          8.1280    -7.3520     2.9170 ha         1 YY4       0.127000
     68 H25          8.2390    -8.1980    -0.0180 ha         1 YY4       0.155000
     69 H26          9.4230   -10.0500     1.4250 h1         1 YY4       0.041700
     70 H27          8.3400    -9.5990     2.7490 h1         1 YY4       0.041700
     71 H29          8.6550   -10.7030    -0.5380 h1         1 YY4       0.033700
     72 H30          7.0180   -10.1110    -0.8540 h1         1 YY4       0.033700
     73 H31          7.2910   -11.8300    -0.5360 h1         1 YY4       0.033700
     74 H32          6.6400   -12.5030     1.4970 h1         1 YY4       0.033700
     75 H33          8.3760   -12.3350     1.7930 h1         1 YY4       0.033700
     76 H34          7.2130   -11.6560     2.9400 h1         1 YY4       0.033700
@<TRIPOS>BOND
     1     9     8 1
     2     8     7 1
     3     7     6 ar
     4     7    10 ar
     5    11    10 1
     6     6     3 ar
     7    10    12 ar
     8    37    36 2
     9     1     2 1
    10     3     2 1
    11     3     4 ar
    12    15    14 2
    13    12     4 ar
    14    12    13 1
    15    39    40 1
    16    39    38 2
    17    36    38 1
    18    36    35 1
    19    32    35 1
    20    32    31 1
    21    40    41 1
    22     4     5 1
    23    13    14 1
    24    13    16 1
    25    35    34 1
    26    14    30 1
    27    31    30 1
    28    31    33 1
    29    30    29 1
    30    41    43 1
    31    41    42 1
    32    34    33 1
    33    16    17 1
    34    29    17 ar
    35    29    28 ar
    36    17    18 ar
    37    28    20 ar
    38    18    19 ar
    39    20    19 ar
    40    20    21 1
    41    23    24 ar
    42    23    22 ar
    43    24    25 ar
    44    21    22 1
    45    22    27 ar
    46    25    26 ar
    47    27    26 ar
    48     1    44 1
    49     1    45 1
    50     1    46 1
    51     6    47 1
    52     9    48 1
    53     9    49 1
    54     9    50 1
    55    16    51 1
    56    16    52 1
    57    18    53 1
    58    21    54 1
    59    23    55 1
    60    24    56 1
    61    25    57 1
    62    26    58 1
    63    27    59 1
    64    31    60 1
    65    32    61 1
    66    32    62 1
    67    33    63 1
    68    33    64 1
    69    34    65 1
    70    34    66 1
    71    38    67 1
    72    39    68 1
    73    40    69 1
    74    40    70 1
    75    42    71 1
    76    42    72 1
    77    42    73 1
    78    43    74 1
    79    43    75 1
    80    43    76 1
@<TRIPOS>SUBSTRUCTURE
     1 YY4         1 TEMP              0 ****  ****    0 ROOT
