@<TRIPOS>MOLECULE
YY5
   75    80     1     0     0
SMALL
bcc


@<TRIPOS>ATOM
      1 CAI          0.0000     0.0000     0.0000 c3         1 YY5       0.055500
      2 OAH          1.4280     0.0000     0.0000 os         1 YY5      -0.177000
      3 CAE          2.0460     0.0000     1.2110 ca         1 YY5       0.158000
      4 CAD          3.4310     0.0050     1.2830 ca         1 YY5      -0.180500
      5 ClL          4.3770     0.0110    -0.1730 cl         1 YY5       0.091500
      6 CAF          1.2910     0.0020     2.3730 ca         1 YY5      -0.298000
      7 CAA          1.9190     0.0020     3.6100 ca         1 YY5       0.158000
      8 OAG          1.1770     0.0030     4.7490 os         1 YY5      -0.177000
      9 CAJ         -0.2440     0.0030     4.5980 c3         1 YY5       0.055500
     10 CAB          3.3040     0.0010     3.6850 ca         1 YY5      -0.180500
     11 ClK          4.0900     0.0020     5.2310 cl         1 YY5       0.091500
     12 CAC          4.0610     0.0060     2.5210 ca         1 YY5       0.030000
     13 NAM          5.4600     0.0110     2.5950 n          1 YY5       0.065000
     14 CAR          6.1370     1.1730     2.6310 c2         1 YY5       0.212000
     15 OAW          5.5060     2.2110     2.6000 o          1 YY5      -0.433000
     16 CAN          6.2110    -1.2570     2.6390 c3         1 YY5       0.006000
     17 C5           7.7130    -1.1520     2.7170 c2         1 YY5      -0.328000
     18 C6           8.5240    -2.2600     2.7640 c2         1 YY5       0.075000
     19 N1           9.8390    -2.0830     2.8330 n2         1 YY5      -0.201000
     20 C2          10.3600    -0.8660     2.8550 c2         1 YY5       0.037000
     21 NAX         11.7350    -0.7270     2.9270 nu         1 YY5       0.083000
     22 CAY         12.5890    -1.9150     2.9760 c3         1 YY5      -0.068000
     23 CBA         12.8600    -2.4070     1.5530 c3         1 YY5      -0.129500
     24 CAZ         13.9150    -1.5630     3.6540 c3         1 YY5      -0.129500
     25 N3           9.6060     0.2240     2.8120 n2         1 YY5      -0.210000
     26 C4           8.2840     0.1220     2.7430 c2         1 YY5       0.058000
     27 NAQ          7.4730     1.2410     2.7020 n          1 YY5       0.161000
     28 CBB          8.1040     2.5630     2.7370 c3         1 YY5      -0.084000
     29 CBF          7.4840     3.4460     3.8490 c3         1 YY5      -0.095000
     30 CBC          7.7570     3.3790     1.4630 c3         1 YY5      -0.139000
     31 CBD          7.8780     4.8400     1.9440 c3         1 YY5      -0.050000
     32 NBE          7.7200     4.8320     3.4060 n3         1 YY5      -0.031000
     33 CBG          7.7810     5.9130     4.2080 c3         1 YY5       0.369000
     34 OBH          7.6350     5.7880     5.4090 o          1 YY5      -0.443000
     35 CBI          8.0240     7.2450     3.6320 c2         1 YY5      -0.179000
     36 CBJ          8.0840     8.3120     4.4230 c2         1 YY5      -0.007000
     37 CBK          8.3330     9.6750     3.8320 DU         1 YY5       0.006000
     38 NBL          7.2610    10.5910     4.2460 n3         1 YY5      -0.089000
     39 CBN          7.5880    11.9780     3.8900 c3         1 YY5      -0.091500
     40 CBM          5.9720    10.1890     3.6670 c3         1 YY5      -0.091500
     41 H1          -0.3610     0.8850     0.5100 h1         1 YY5       0.039167
     42 H2          -0.3610    -0.8840     0.5110 h1         1 YY5       0.039167
     43 H3          -0.3610    -0.0000    -1.0210 h1         1 YY5       0.039167
     44 H4           0.2090    -0.0010     2.3160 ha         1 YY5       0.145000
     45 H5          -0.5490    -0.8820     4.0530 h1         1 YY5       0.039167
     46 H6          -0.7110     0.0050     5.5750 h1         1 YY5       0.039167
     47 H7          -0.5480     0.8870     4.0510 h1         1 YY5       0.039167
     48 H8           5.9630    -1.8220     1.7480 h1         1 YY5       0.060500
     49 H9           5.8710    -1.8160     3.5030 h1         1 YY5       0.060500
     50 H10          8.1000    -3.2570     2.7460 h4         1 YY5       0.121000
     51 H11         12.1440     0.1860     2.9600 hn         1 YY5       0.096000
     52 H12         12.0920    -2.6950     3.5390 h1         1 YY5       0.095000
     53 H13         13.6300    -3.1690     1.5740 hc         1 YY5       0.050167
     54 H14         11.9510    -2.8230     1.1360 hc         1 YY5       0.050167
     55 H15         13.1910    -1.5770     0.9410 hc         1 YY5       0.050167
     56 H16         13.7200    -1.1710     4.6450 hc         1 YY5       0.050167
     57 H17         14.4350    -0.8170     3.0660 hc         1 YY5       0.050167
     58 H18         14.5280    -2.4530     3.7330 hc         1 YY5       0.050167
     59 H19          9.1770     2.4840     2.8630 h1         1 YY5       0.115000
     60 H20          7.9810     3.2640     4.7940 h1         1 YY5       0.096500
     61 H21          6.4210     3.2540     3.9320 h1         1 YY5       0.096500
     62 H22          6.7460     3.1660     1.1370 hc         1 YY5       0.083500
     63 H23          8.4720     3.1770     0.6740 hc         1 YY5       0.083500
     64 H24          7.0970     5.4410     1.4930 h1         1 YY5       0.054000
     65 H25          8.8520     5.2340     1.6820 h1         1 YY5       0.054000
     66 H26          8.7760     6.6490     4.1340 DU         1 YY5       0.025000
     67 H27          9.0550     8.6730     4.1060 DU         1 YY5       0.022000
     68 H28          8.3490     9.6020     2.7510 ha         1 YY5       0.055000
     69 H29          9.2860    10.0520     4.1830 ha         1 YY5       0.055000
     70 H31          7.6740    12.0640     2.8140 h1         1 YY5       0.041333
     71 H32          6.8030    12.6360     4.2430 h1         1 YY5       0.041333
     72 H33          8.5270    12.2580     4.3510 h1         1 YY5       0.041333
     73 H34          6.0930    10.0100     2.6050 h1         1 YY5       0.041333
     74 H35          5.2460    10.9790     3.8190 h1         1 YY5       0.041333
     75 H36          5.6260     9.2830     4.1490 h1         1 YY5       0.041333
@<TRIPOS>BOND
     1     1     2 1   
     2     1    41 1   
     3     1    42 1   
     4     1    43 1   
     5     2     3 1   
     6     3     4 1   
     7     3     6 1   
     8     4     5 1   
     9     4    12 1   
    10     6     7 1   
    11     6    44 1   
    12     7     8 1   
    13     7    10 1   
    14     8     9 1   
    15     9    45 1   
    16     9    46 1   
    17     9    47 1   
    18    10    11 1   
    19    10    12 1   
    20    12    13 1   
    21    13    14 1   
    22    13    16 1   
    23    14    15 1   
    24    14    27 1   
    25    16    17 1   
    26    16    48 1   
    27    16    49 1   
    28    17    18 1   
    29    17    26 1   
    30    18    19 1   
    31    18    50 1   
    32    19    20 1   
    33    20    21 1   
    34    20    25 1   
    35    21    22 1   
    36    21    51 1   
    37    22    23 1   
    38    22    24 1   
    39    22    52 1   
    40    23    53 1   
    41    23    54 1   
    42    23    55 1   
    43    24    56 1   
    44    24    57 1   
    45    24    58 1   
    46    25    26 1   
    47    26    27 1   
    48    27    28 1   
    49    28    29 1   
    50    28    30 1   
    51    28    59 1   
    52    29    32 1   
    53    29    60 1   
    54    29    61 1   
    55    30    31 1   
    56    30    62 1   
    57    30    63 1   
    58    31    32 1   
    59    31    64 1   
    60    31    65 1   
    61    32    33 1   
    62    33    34 1   
    63    33    35 1   
    64    33    66 1   
    65    35    36 1   
    66    35    66 1   
    67    36    37 1   
    68    36    67 1   
    69    37    38 1   
    70    37    67 1   
    71    37    68 1   
    72    37    69 1   
    73    38    39 1   
    74    38    40 1   
    75    39    70 1   
    76    39    71 1   
    77    39    72 1   
    78    40    73 1   
    79    40    74 1   
    80    40    75 1   
@<TRIPOS>SUBSTRUCTURE
     1 YY5         1 TEMP              0 ****  ****    0 ROOT
