@<TRIPOS>MOLECULE
molecule
   75    78     1     0     0
SMALL
bcc


@<TRIPOS>ATOM
      1 CAI          0.0000     0.0000     0.0000 c3         1 YY5       0.126700
      2 OAH          1.4280     0.0000     0.0000 os         1 YY5      -0.306900
      3 CAE          2.0460     0.0000     1.2110 ca         1 YY5       0.190600
      4 CAD          3.4310     0.0050     1.2830 ca         1 YY5      -0.027600
      5 ClL          4.3770     0.0110    -0.1730 cl         1 YY5      -0.069900
      6 CAF          1.2910     0.0020     2.3730 ca         1 YY5      -0.299000
      7 CAA          1.9190     0.0020     3.6100 ca         1 YY5       0.190600
      8 OAG          1.1770     0.0030     4.7490 os         1 YY5      -0.306900
      9 CAJ         -0.2440     0.0030     4.5980 c3         1 YY5       0.126700
     10 CAB          3.3040     0.0010     3.6850 ca         1 YY5      -0.027600
     11 ClK          4.0900     0.0020     5.2310 cl         1 YY5      -0.069900
     12 CAC          4.0610     0.0060     2.5210 ca         1 YY5       0.154600
     13 NAM          5.4600     0.0110     2.5950 n          1 YY5      -0.402000
     14 CAR          6.1370     1.1730     2.6310 c          1 YY5       0.839500
     15 OAW          5.5060     2.2110     2.6000 o          1 YY5      -0.656500
     16 CAN          6.2110    -1.2570     2.6390 c3         1 YY5       0.173300
     17 C5           7.7130    -1.1520     2.7170 ca         1 YY5      -0.454900
     18 C6           8.5240    -2.2600     2.7640 ca         1 YY5       0.538200
     19 N1           9.8390    -2.0830     2.8330 nb         1 YY5      -0.818000
     20 C2          10.3600    -0.8660     2.8550 ca         1 YY5       0.976900
     21 NAX         11.7350    -0.7270     2.9270 nu         1 YY5      -0.888900
     22 CAY         12.5890    -1.9150     2.9760 c3         1 YY5       0.244500
     23 CBA         12.8600    -2.4070     1.5530 c3         1 YY5      -0.109600
     24 CAZ         13.9150    -1.5630     3.6540 c3         1 YY5      -0.109600
     25 N3           9.6060     0.2240     2.8120 nb         1 YY5      -0.846000
     26 C4           8.2840     0.1220     2.7430 ca         1 YY5       0.648200
     27 NAQ          7.4730     1.2410     2.7020 n          1 YY5      -0.432300
     28 CBB          8.1040     2.5630     2.7370 c3         1 YY5       0.103700
     29 CBF          7.4840     3.4460     3.8490 c3         1 YY5       0.083000
     30 CBC          7.7570     3.3790     1.4630 c3         1 YY5      -0.112400
     31 CBD          7.8780     4.8400     1.9440 c3         1 YY5       0.102000
     32 NBE          7.7200     4.8320     3.4060 n          1 YY5      -0.486800
     33 CBG          7.7810     5.9130     4.2080 c          1 YY5       0.685300
     34 OBH          7.6350     5.7880     5.4090 o          1 YY5      -0.615100
     35 CBI          8.0240     7.2450     3.6320 ce         1 YY5      -0.254200
     36 CBJ          8.0840     8.3120     4.4230 c2         1 YY5      -0.081200
     37 CBK          8.3330     9.6750     3.8320 c3         1 YY5       0.185000
     38 NBL          7.2610    10.5910     4.2460 n3         1 YY5      -0.726600
     39 CBN          7.5880    11.9780     3.8900 c3         1 YY5       0.150600
     40 CBM          5.9720    10.1890     3.6670 c3         1 YY5       0.150600
     41 H1          -0.3610    -0.8840     0.5120 h1         1 YY5       0.045033
     42 H2          -0.3610    -0.0010    -1.0210 h1         1 YY5       0.045033
     43 H3          -0.3610     0.8850     0.5090 h1         1 YY5       0.045033
     44 H4           0.2090     0.0150     2.3160 ha         1 YY5       0.153000
     45 H5          -0.5490     0.8880     4.0520 h1         1 YY5       0.045033
     46 H6          -0.5490    -0.8810     4.0520 h1         1 YY5       0.045033
     47 H7          -0.7110     0.0030     5.5750 h1         1 YY5       0.045033
     48 H8           5.9630    -1.8220     1.7480 h1         1 YY5       0.052700
     49 H9           5.8710    -1.8160     3.5030 h1         1 YY5       0.052700
     50 H10          8.1000    -3.2570     2.7460 h4         1 YY5       0.033100
     51 H11         12.1440     0.1860     2.9720 hn         1 YY5       0.456800
     52 H12         12.0920    -2.6950     3.5390 h1         1 YY5       0.079700
     53 H13         13.6250    -3.1740     1.5750 hc         1 YY5       0.043367
     54 H14         13.1980    -1.5780     0.9420 hc         1 YY5       0.043367
     55 H15         11.9500    -2.8170     1.1330 hc         1 YY5       0.043367
     56 H16         14.5470    -2.4420     3.6890 hc         1 YY5       0.043367
     57 H17         13.7230    -1.2160     4.6630 hc         1 YY5       0.043367
     58 H18         14.4120    -0.7820     3.0920 hc         1 YY5       0.043367
     59 H19          9.1770     2.4840     2.8630 h1         1 YY5       0.108700
     60 H20          6.4210     3.2540     3.9320 h1         1 YY5       0.081200
     61 H21          7.9810     3.2640     4.7940 h1         1 YY5       0.081200
     62 H22          8.4720     3.1770     0.6740 hc         1 YY5       0.071700
     63 H23          6.7460     3.1660     1.1370 hc         1 YY5       0.071700
     64 H24          7.0970     5.4410     1.4930 h1         1 YY5       0.041700
     65 H25          8.8520     5.2340     1.6820 h1         1 YY5       0.041700
     66 H26          8.1540     7.3560     2.5620 ha         1 YY5       0.125000
     67 H27          7.9540     8.2010     5.4930 ha         1 YY5       0.165000
     68 H28          9.2860    10.0520     4.1830 h1         1 YY5       0.041200
     69 H29          8.3490     9.6020     2.7510 h1         1 YY5       0.041200
     70 H31          6.7850    12.6320     4.2100 h1         1 YY5       0.033700
     71 H32          7.7110    12.0560     2.8170 h1         1 YY5       0.033700
     72 H33          8.5080    12.2700     4.3820 h1         1 YY5       0.033700
     73 H34          5.2370    10.9650     3.8480 h1         1 YY5       0.033700
     74 H35          6.0860    10.0430     2.5990 h1         1 YY5       0.033700
     75 H36          5.6420     9.2650     4.1250 h1         1 YY5       0.033700
@<TRIPOS>BOND
     1     2     1 1
     2     2     3 1
     3     3     6 ar
     4     3     4 ar
     5     5     4 1
     6     6     7 ar
     7     4    12 ar
     8    34    33 2
     9     7     8 1
    10     7    10 ar
    11    15    14 2
    12     9     8 1
    13    12    10 ar
    14    12    13 1
    15    29    32 1
    16    29    28 1
    17    33    32 1
    18    33    35 1
    19    10    11 1
    20    13    14 1
    21    13    16 1
    22    32    31 1
    23    14    27 1
    24    36    35 2
    25    36    37 1
    26    28    27 1
    27    28    30 1
    28    37    38 1
    29    27    26 1
    30    31    30 1
    31    16    17 1
    32    26    17 ar
    33    26    25 ar
    34    38    40 1
    35    38    39 1
    36    17    18 ar
    37    23    22 1
    38    25    20 ar
    39    18    19 ar
    40    20    19 ar
    41    20    21 1
    42    22    21 1
    43    22    24 1
    44     1    41 1
    45     1    42 1
    46     1    43 1
    47     6    44 1
    48     9    45 1
    49     9    46 1
    50     9    47 1
    51    16    48 1
    52    16    49 1
    53    18    50 1
    54    21    51 1
    55    22    52 1
    56    23    53 1
    57    23    54 1
    58    23    55 1
    59    24    56 1
    60    24    57 1
    61    24    58 1
    62    28    59 1
    63    29    60 1
    64    29    61 1
    65    30    62 1
    66    30    63 1
    67    31    64 1
    68    31    65 1
    69    35    66 1
    70    36    67 1
    71    37    68 1
    72    37    69 1
    73    39    70 1
    74    39    71 1
    75    39    72 1
    76    40    73 1
    77    40    74 1
    78    40    75 1
@<TRIPOS>SUBSTRUCTURE
     1 YY5         1 TEMP              0 ****  ****    0 ROOT
