@<TRIPOS>MOLECULE
YY6
   82    88     1     0     0
SMALL
bcc


@<TRIPOS>ATOM
      1 CAV          0.0000     0.0000     0.0000 c3         1 YY6       0.056000
      2 OAT          1.4290     0.0000     0.0000 os         1 YY6      -0.177000
      3 CAP          2.0470     0.0000     1.2110 ca         1 YY6       0.158000
      4 CAQ          3.4320     0.0060     1.2820 ca         1 YY6      -0.180500
      5 ClR          4.3760     0.0130    -0.1740 cl         1 YY6       0.091500
      6 CAO          1.2920     0.0010     2.3740 ca         1 YY6      -0.298000
      7 CAN          1.9210     0.0020     3.6090 ca         1 YY6       0.158000
      8 OAU          1.1800     0.0030     4.7490 os         1 YY6      -0.177000
      9 CAW         -0.2420     0.0020     4.5990 c3         1 YY6       0.056000
     10 CAM          3.3060     0.0030     3.6840 ca         1 YY6      -0.180500
     11 ClS          4.0940     0.0040     5.2310 cl         1 YY6       0.091500
     12 CAL          4.0630     0.0070     2.5190 ca         1 YY6       0.030000
     13 NAI          5.4620     0.0130     2.5930 n          1 YY6       0.065000
     14 CAH          6.1470    -1.1450     2.6210 c2         1 YY6       0.213000
     15 OAK          5.5240    -2.1880     2.5830 o          1 YY6      -0.436000
     16 CAJ          6.2030     1.2860     2.6330 c3         1 YY6       0.007000
     17 C5           7.7070     1.1910     2.7110 c2         1 YY6      -0.329000
     18 C6           8.5100     2.3050     2.7560 c2         1 YY6       0.075000
     19 N1           9.8260     2.1370     2.8240 n2         1 YY6      -0.201000
     20 C2          10.3550     0.9230     2.8500 c2         1 YY6       0.037000
     21 NBC         11.7310     0.7950     2.9220 nu         1 YY6       0.086000
     22 CBD         12.5780     1.9890     2.9680 c3         1 YY6      -0.066000
     23 CBE         12.8450     2.4800     1.5440 c3         1 YY6      -0.118000
     24 CBF         13.7290     3.7280     1.5930 c3         1 YY6      -0.096000
     25 CBG         15.0570     3.3860     2.2720 c3         1 YY6      -0.107000
     26 CBH         14.7890     2.8950     3.6970 c3         1 YY6      -0.096000
     27 CBI         13.9060     1.6470     3.6480 c3         1 YY6      -0.118000
     28 N3           9.6090    -0.1710     2.8100 n2         1 YY6      -0.207000
     29 C4           8.2870    -0.0790     2.7390 c2         1 YY6       0.058000
     30 NAG          7.4830    -1.2040     2.6900 n          1 YY6       0.160000
     31 CAX          8.1240    -2.5220     2.7160 c3         1 YY6      -0.081000
     32 CBB          7.6300    -3.4020     1.5410 c3         1 YY6      -0.096000
     33 CAY          7.6520    -3.3450     3.9430 c3         1 YY6      -0.140000
     34 CAZ          7.8330    -4.8030     3.4700 c3         1 YY6      -0.052000
     35 NBA          7.8290    -4.7890     1.9990 n3         1 YY6      -0.027000
     36 CBJ          7.9810    -5.8650     1.2030 c3         1 YY6       0.331000
     37 OBK          7.9610    -5.7350    -0.0060 o          1 YY6      -0.443000
     38 CBL          8.1730    -7.1980     1.7960 c2         1 YY6      -0.183000
     39 CBM          8.3230    -8.2600     1.0100 c2         1 YY6      -0.048000
     40 CBN          8.5180    -9.6250     1.6170 DU         1 YY6      -0.007000
     41 NBO          7.5030   -10.5460     1.0900 n3         1 YY6      -0.084000
     42 CBQ          7.6940   -10.7730    -0.3490 c3         1 YY6      -0.092000
     43 CBP          7.5090   -11.8160     1.8290 c3         1 YY6      -0.092000
     44 H1          -0.3610     0.8850     0.5110 h1         1 YY6       0.039167
     45 H2          -0.3610    -0.0000    -1.0210 h1         1 YY6       0.039167
     46 H3          -0.3610    -0.8840     0.5110 h1         1 YY6       0.039167
     47 H4           0.2100    -0.0010     2.3170 ha         1 YY6       0.145000
     48 H5          -0.5460    -0.8840     4.0540 h1         1 YY6       0.039167
     49 H6          -0.7080     0.0030     5.5760 h1         1 YY6       0.039167
     50 H7          -0.5470     0.8850     4.0520 h1         1 YY6       0.039167
     51 H8           5.9500     1.8470     1.7420 h1         1 YY6       0.059500
     52 H9           5.8590     1.8440     3.4970 h1         1 YY6       0.059500
     53 H10          8.0790     3.2980     2.7350 h4         1 YY6       0.121000
     54 H11         12.1480    -0.1150     2.9550 hn         1 YY6       0.096000
     55 H12         12.0780     2.7700     3.5290 h1         1 YY6       0.099000
     56 H13         13.3500     1.7020     0.9840 hc         1 YY6       0.060250
     57 H14         11.9040     2.7240     1.0650 hc         1 YY6       0.060250
     58 H15         13.9200     4.0720     0.5840 hc         1 YY6       0.055250
     59 H16         13.2260     4.5040     2.1560 hc         1 YY6       0.055250
     60 H17         15.6810     4.2710     2.3080 hc         1 YY6       0.054000
     61 H18         15.5580     2.6060     1.7110 hc         1 YY6       0.054000
     62 H19         15.7300     2.6520     4.1760 hc         1 YY6       0.055250
     63 H20         14.2840     3.6730     4.2560 hc         1 YY6       0.055250
     64 H21         14.4090     0.8710     3.0840 hc         1 YY6       0.060250
     65 H22         13.7150     1.3020     4.6570 hc         1 YY6       0.060250
     66 H23          9.2040    -2.4350     2.7040 h1         1 YY6       0.117000
     67 H24          8.2230    -3.2120     0.6540 h1         1 YY6       0.095500
     68 H25          6.5810    -3.2170     1.3490 h1         1 YY6       0.095500
     69 H26          6.6110    -3.1420     4.1610 hc         1 YY6       0.083000
     70 H27          8.2790    -3.1430     4.8030 hc         1 YY6       0.083000
     71 H28          8.7780    -5.1920     3.8310 h1         1 YY6       0.054500
     72 H29          7.0140    -5.4120     3.8340 h1         1 YY6       0.054500
     73 H30          7.2380    -6.8410     1.3820 DU         1 YY6       0.080000
     74 H31          9.2580    -8.6180     1.4230 DU         1 YY6       0.060000
     75 H32          8.4210    -9.5580     2.6940 ha         1 YY6       0.051500
     76 H33          9.5050    -9.9940     1.3660 ha         1 YY6       0.051500
     77 H35          8.7030   -11.1250    -0.5280 h1         1 YY6       0.041833
     78 H36          7.5340    -9.8460    -0.8850 h1         1 YY6       0.041833
     79 H37          6.9860   -11.5170    -0.6950 h1         1 YY6       0.041833
     80 H38          8.4850   -12.2780     1.7440 h1         1 YY6       0.041833
     81 H39          7.2880   -11.6280     2.8730 h1         1 YY6       0.041833
     82 H40          6.7590   -12.4790     1.4150 h1         1 YY6       0.041833
@<TRIPOS>BOND
     1     1     2 1   
     2     1    44 1   
     3     1    45 1   
     4     1    46 1   
     5     2     3 1   
     6     3     4 1   
     7     3     6 1   
     8     4     5 1   
     9     4    12 1   
    10     6     7 1   
    11     6    47 1   
    12     7     8 1   
    13     7    10 1   
    14     8     9 1   
    15     9    48 1   
    16     9    49 1   
    17     9    50 1   
    18    10    11 1   
    19    10    12 1   
    20    12    13 1   
    21    13    14 1   
    22    13    16 1   
    23    14    15 1   
    24    14    30 1   
    25    16    17 1   
    26    16    51 1   
    27    16    52 1   
    28    17    18 1   
    29    17    29 1   
    30    18    19 1   
    31    18    53 1   
    32    19    20 1   
    33    20    21 1   
    34    20    28 1   
    35    21    22 1   
    36    21    54 1   
    37    22    23 1   
    38    22    27 1   
    39    22    55 1   
    40    23    24 1   
    41    23    56 1   
    42    23    57 1   
    43    24    25 1   
    44    24    58 1   
    45    24    59 1   
    46    25    26 1   
    47    25    60 1   
    48    25    61 1   
    49    26    27 1   
    50    26    62 1   
    51    26    63 1   
    52    27    64 1   
    53    27    65 1   
    54    28    29 1   
    55    29    30 1   
    56    30    31 1   
    57    31    32 1   
    58    31    33 1   
    59    31    66 1   
    60    32    35 1   
    61    32    67 1   
    62    32    68 1   
    63    33    34 1   
    64    33    69 1   
    65    33    70 1   
    66    34    35 1   
    67    34    71 1   
    68    34    72 1   
    69    35    36 1   
    70    36    37 1   
    71    36    38 1   
    72    36    73 1   
    73    38    39 1   
    74    38    73 1   
    75    39    40 1   
    76    39    74 1   
    77    40    41 1   
    78    40    74 1   
    79    40    75 1   
    80    40    76 1   
    81    41    42 1   
    82    41    43 1   
    83    42    77 1   
    84    42    78 1   
    85    42    79 1   
    86    43    80 1   
    87    43    81 1   
    88    43    82 1   
@<TRIPOS>SUBSTRUCTURE
     1 YY6         1 TEMP              0 ****  ****    0 ROOT
