@<TRIPOS>MOLECULE
molecule
   82    86     1     0     0
SMALL
bcc


@<TRIPOS>ATOM
      1 CAV          0.0000     0.0000     0.0000 c3         1 YY6       0.126700
      2 OAT          1.4290     0.0000     0.0000 os         1 YY6      -0.306900
      3 CAP          2.0470     0.0000     1.2110 ca         1 YY6       0.190600
      4 CAQ          3.4320     0.0060     1.2820 ca         1 YY6      -0.027100
      5 ClR          4.3760     0.0130    -0.1740 cl         1 YY6      -0.070400
      6 CAO          1.2920     0.0010     2.3740 ca         1 YY6      -0.298000
      7 CAN          1.9210     0.0020     3.6090 ca         1 YY6       0.190600
      8 OAU          1.1800     0.0030     4.7490 os         1 YY6      -0.306900
      9 CAW         -0.2420     0.0020     4.5990 c3         1 YY6       0.126700
     10 CAM          3.3060     0.0030     3.6840 ca         1 YY6      -0.027100
     11 ClS          4.0940     0.0040     5.2310 cl         1 YY6      -0.070400
     12 CAL          4.0630     0.0070     2.5190 ca         1 YY6       0.154600
     13 NAI          5.4620     0.0130     2.5930 n          1 YY6      -0.402000
     14 CAH          6.1470    -1.1450     2.6210 c          1 YY6       0.839500
     15 OAK          5.5240    -2.1880     2.5830 o          1 YY6      -0.655500
     16 CAJ          6.2030     1.2860     2.6330 c3         1 YY6       0.173300
     17 C5           7.7070     1.1910     2.7110 ca         1 YY6      -0.454900
     18 C6           8.5100     2.3050     2.7560 ca         1 YY6       0.537200
     19 N1           9.8260     2.1370     2.8240 nb         1 YY6      -0.818000
     20 C2          10.3550     0.9230     2.8500 ca         1 YY6       0.977900
     21 NBC         11.7310     0.7950     2.9220 nu         1 YY6      -0.888900
     22 CBD         12.5780     1.9890     2.9680 c3         1 YY6       0.249500
     23 CBE         12.8450     2.4800     1.5440 c3         1 YY6      -0.094900
     24 CBF         13.7290     3.7280     1.5930 c3         1 YY6      -0.076900
     25 CBG         15.0570     3.3860     2.2720 c3         1 YY6      -0.084400
     26 CBH         14.7890     2.8950     3.6970 c3         1 YY6      -0.076900
     27 CBI         13.9060     1.6470     3.6480 c3         1 YY6      -0.094900
     28 N3           9.6090    -0.1710     2.8100 nb         1 YY6      -0.846000
     29 C4           8.2870    -0.0790     2.7390 ca         1 YY6       0.648200
     30 NAG          7.4830    -1.2040     2.6900 n          1 YY6      -0.432300
     31 CAX          8.1240    -2.5220     2.7160 c3         1 YY6       0.103700
     32 CBB          7.6300    -3.4020     1.5410 c3         1 YY6       0.083000
     33 CAY          7.6520    -3.3450     3.9430 c3         1 YY6      -0.111400
     34 CAZ          7.8330    -4.8030     3.4700 c3         1 YY6       0.101000
     35 NBA          7.8290    -4.7890     1.9990 n          1 YY6      -0.486800
     36 CBJ          7.9810    -5.8650     1.2030 c          1 YY6       0.686300
     37 OBK          7.9610    -5.7350    -0.0060 o          1 YY6      -0.618100
     38 CBL          8.1730    -7.1980     1.7960 ce         1 YY6      -0.242200
     39 CBM          8.3230    -8.2600     1.0100 c2         1 YY6      -0.083200
     40 CBN          8.5180    -9.6250     1.6170 c3         1 YY6       0.186000
     41 NBO          7.5030   -10.5460     1.0900 n3         1 YY6      -0.725600
     42 CBQ          7.6940   -10.7730    -0.3490 c3         1 YY6       0.149600
     43 CBP          7.5090   -11.8160     1.8290 c3         1 YY6       0.149600
     44 H1          -0.3610    -0.8830     0.5130 h1         1 YY6       0.045200
     45 H2          -0.3610    -0.0030    -1.0210 h1         1 YY6       0.045200
     46 H3          -0.3610     0.8860     0.5080 h1         1 YY6       0.045200
     47 H4           0.2100    -0.0010     2.3170 ha         1 YY6       0.153000
     48 H5          -0.7080    -0.0040     5.5760 h1         1 YY6       0.045200
     49 H6          -0.5460    -0.8810     4.0480 h1         1 YY6       0.045200
     50 H7          -0.5480     0.8880     4.0570 h1         1 YY6       0.045200
     51 H8           5.9500     1.8470     1.7420 h1         1 YY6       0.052200
     52 H9           5.8590     1.8440     3.4970 h1         1 YY6       0.052200
     53 H10          8.0790     3.2980     2.7350 h4         1 YY6       0.033100
     54 H11         12.1480    -0.1150     2.9560 hn         1 YY6       0.456800
     55 H12         12.0780     2.7700     3.5290 h1         1 YY6       0.081700
     56 H13         11.9040     2.7240     1.0650 hc         1 YY6       0.048950
     57 H14         13.3500     1.7020     0.9840 hc         1 YY6       0.048950
     58 H15         13.9200     4.0720     0.5840 hc         1 YY6       0.044700
     59 H16         13.2260     4.5040     2.1560 hc         1 YY6       0.044700
     60 H17         15.5580     2.6060     1.7110 hc         1 YY6       0.042700
     61 H18         15.6810     4.2710     2.3080 hc         1 YY6       0.042700
     62 H19         15.7300     2.6520     4.1760 hc         1 YY6       0.044700
     63 H20         14.2840     3.6730     4.2560 hc         1 YY6       0.044700
     64 H21         13.7150     1.3020     4.6570 hc         1 YY6       0.048950
     65 H22         14.4090     0.8710     3.0840 hc         1 YY6       0.048950
     66 H23          9.2040    -2.4350     2.7040 h1         1 YY6       0.107700
     67 H24          8.2230    -3.2120     0.6540 h1         1 YY6       0.080700
     68 H25          6.5810    -3.2170     1.3490 h1         1 YY6       0.080700
     69 H26          6.6110    -3.1420     4.1610 hc         1 YY6       0.071700
     70 H27          8.2790    -3.1430     4.8030 hc         1 YY6       0.071700
     71 H28          7.0140    -5.4120     3.8340 h1         1 YY6       0.042200
     72 H29          8.7780    -5.1920     3.8310 h1         1 YY6       0.042200
     73 H30          8.1910    -7.3140     2.8730 ha         1 YY6       0.126000
     74 H31          8.3040    -8.1440    -0.0670 ha         1 YY6       0.155000
     75 H32          9.5050    -9.9940     1.3660 h1         1 YY6       0.041200
     76 H33          8.4210    -9.5580     2.6940 h1         1 YY6       0.041200
     77 H35          7.3850   -11.7810    -0.6000 h1         1 YY6       0.033700
     78 H36          7.0990   -10.0630    -0.9090 h1         1 YY6       0.033700
     79 H37          8.7400   -10.6440    -0.5990 h1         1 YY6       0.033700
     80 H38          8.4730   -12.2970     1.7120 h1         1 YY6       0.033700
     81 H39          7.3260   -11.6240     2.8790 h1         1 YY6       0.033700
     82 H40          6.7330   -12.4640     1.4400 h1         1 YY6       0.033700
@<TRIPOS>BOND
     1     1     2 1
     2     2     3 1
     3     3     6 ar
     4     3     4 ar
     5     5     4 1
     6     6     7 ar
     7     4    12 ar
     8    37    36 2
     9     9     8 1
    10    39    40 1
    11    39    38 2
    12     7     8 1
    13     7    10 ar
    14    15    14 2
    15    36    38 1
    16    36    35 1
    17    12    10 ar
    18    12    13 1
    19    32    35 1
    20    32    31 1
    21    40    41 1
    22    35    34 1
    23    10    11 1
    24    14    13 1
    25    14    30 1
    26    13    16 1
    27    43    41 1
    28    31    30 1
    29    31    33 1
    30    41    42 1
    31    30    29 1
    32    34    33 1
    33    16    17 1
    34    29    17 ar
    35    29    28 ar
    36    17    18 ar
    37    28    20 ar
    38    24    23 1
    39    24    25 1
    40    23    22 1
    41    18    19 ar
    42    20    19 ar
    43    20    21 1
    44    25    26 1
    45    22    21 1
    46    22    27 1
    47    26    27 1
    48     1    44 1
    49     1    45 1
    50     1    46 1
    51     6    47 1
    52     9    48 1
    53     9    49 1
    54     9    50 1
    55    16    51 1
    56    16    52 1
    57    18    53 1
    58    21    54 1
    59    22    55 1
    60    23    56 1
    61    23    57 1
    62    24    58 1
    63    24    59 1
    64    25    60 1
    65    25    61 1
    66    26    62 1
    67    26    63 1
    68    27    64 1
    69    27    65 1
    70    31    66 1
    71    32    67 1
    72    32    68 1
    73    33    69 1
    74    33    70 1
    75    34    71 1
    76    34    72 1
    77    38    73 1
    78    39    74 1
    79    40    75 1
    80    40    76 1
    81    42    77 1
    82    42    78 1
    83    42    79 1
    84    43    80 1
    85    43    81 1
    86    43    82 1
@<TRIPOS>SUBSTRUCTURE
     1 YY6         1 TEMP              0 ****  ****    0 ROOT
