@<TRIPOS>MOLECULE
YY7
   69    74     1     0     0
SMALL
bcc


@<TRIPOS>ATOM
      1 CAI          0.0000     0.0000     0.0000 c3         1 YY7       0.055500
      2 OAG          1.4290     0.0000     0.0000 os         1 YY7      -0.176500
      3 CAA          2.0470     0.0000     1.2110 ca         1 YY7       0.158000
      4 CAB          3.4320    -0.0000     1.2830 ca         1 YY7      -0.180500
      5 ClJ          4.3770     0.0010    -0.1720 cl         1 YY7       0.091000
      6 CAF          1.2910     0.0050     2.3740 ca         1 YY7      -0.298000
      7 CAE          1.9190     0.0060     3.6100 ca         1 YY7       0.158000
      8 OAH          1.1780     0.0110     4.7500 os         1 YY7      -0.176500
      9 CAJ         -0.2430     0.0150     4.5980 c3         1 YY7       0.055500
     10 CAD          3.3050     0.0010     3.6840 ca         1 YY7      -0.180500
     11 ClK          4.0910     0.0020     5.2320 cl         1 YY7       0.091000
     12 CAC          4.0610     0.0000     2.5210 ca         1 YY7       0.029000
     13 NAK          5.4600    -0.0050     2.5940 n          1 YY7       0.065000
     14 CAP          6.1370    -1.1670     2.6290 c2         1 YY7       0.211000
     15 OBL          5.5060    -2.2060     2.5920 o          1 YY7      -0.433000
     16 CAL          6.2120     1.2630     2.6300 c3         1 YY7       0.006000
     17 C5           7.7140     1.1570     2.7100 c2         1 YY7      -0.327000
     18 C6           8.5260     2.2650     2.7490 c2         1 YY7       0.076000
     19 N1           9.8410     2.0880     2.8200 n2         1 YY7      -0.200000
     20 C2          10.3610     0.8690     2.8520 c2         1 YY7       0.033000
     21 NAU         11.7360     0.7300     2.9250 nu         1 YY7       0.079000
     22 CAV         12.5910     1.9180     2.9680 c3         1 YY7      -0.075000
     23 N3           9.6070    -0.2200     2.8150 n2         1 YY7      -0.208000
     24 C4           8.2850    -0.1170     2.7440 c2         1 YY7       0.057000
     25 NAO          7.4730    -1.2370     2.6990 n          1 YY7       0.160000
     26 CAW          8.1040    -2.5590     2.7300 c3         1 YY7      -0.084000
     27 CBA          7.6050    -3.4400     1.5570 c3         1 YY7      -0.095000
     28 CAX          7.6250    -3.3740     3.9590 c3         1 YY7      -0.139000
     29 CAY          7.7940    -4.8360     3.4920 c3         1 YY7      -0.050000
     30 NAZ          7.7920    -4.8270     2.0220 n3         1 YY7      -0.032000
     31 CBB          7.9360    -5.9070     1.2290 c3         1 YY7       0.370000
     32 OBC          7.9180    -5.7810     0.0200 o          1 YY7      -0.444000
     33 CBD          8.1170    -7.2390     1.8270 c2         1 YY7      -0.151000
     34 CBE          8.2600    -8.3050     1.0450 c2         1 YY7      -0.021000
     35 CBF          8.4440    -9.6690     1.6570 DU         1 YY7       0.009000
     36 NBG          7.4220   -10.5840     1.1320 n3         1 YY7      -0.084000
     37 CBI          7.6140   -10.8180    -0.3060 c3         1 YY7      -0.091500
     38 CBH          7.4170   -11.8510     1.8760 c3         1 YY7      -0.091500
     39 H1          -0.3610    -0.0040    -1.0210 h1         1 YY7       0.039000
     40 H2          -0.3610     0.8860     0.5080 h1         1 YY7       0.039000
     41 H3          -0.3610    -0.8830     0.5140 h1         1 YY7       0.039000
     42 H4           0.2090     0.0100     2.3170 ha         1 YY7       0.145000
     43 H5          -0.5510    -0.8690     4.0540 h1         1 YY7       0.039000
     44 H6          -0.5450     0.9000     4.0510 h1         1 YY7       0.039000
     45 H7          -0.7100     0.0190     5.5760 h1         1 YY7       0.039000
     46 H8           5.8720     1.8270     3.4900 h1         1 YY7       0.060000
     47 H9           5.9650     1.8210     1.7360 h1         1 YY7       0.060000
     48 H10          8.1030     3.2610     2.7240 h4         1 YY7       0.121000
     49 H11         12.1460    -0.1830     2.9490 hn         1 YY7       0.093000
     50 H12         12.3420     2.5120     3.8390 h1         1 YY7       0.050000
     51 H13         12.4360     2.5080     2.0730 h1         1 YY7       0.050000
     52 H14         13.6300     1.6140     3.0240 h1         1 YY7       0.050000
     53 H15          9.1850    -2.4800     2.7180 h1         1 YY7       0.115000
     54 H16          8.2000    -3.2570     0.6700 h1         1 YY7       0.096500
     55 H17          6.5570    -3.2470     1.3630 h1         1 YY7       0.096500
     56 H18          8.2520    -3.1740     4.8190 hc         1 YY7       0.083000
     57 H19          6.5850    -3.1610     4.1760 hc         1 YY7       0.083000
     58 H20          8.7340    -5.2310     3.8560 h1         1 YY7       0.055000
     59 H21          6.9690    -5.4360     3.8570 h1         1 YY7       0.055000
     60 H22          8.9190    -6.6420     1.4110 DU         1 YY7       0.018000
     61 H23          9.1920    -8.6680     1.4600 DU         1 YY7       0.018000
     62 H24          9.4280   -10.0470     1.4090 ha         1 YY7       0.051000
     63 H25          8.3460    -9.5980     2.7340 ha         1 YY7       0.051000
     64 H27          7.4050    -9.9060    -0.8510 h1         1 YY7       0.041000
     65 H28          8.6380   -11.1220    -0.4880 h1         1 YY7       0.041000
     66 H29          6.9410   -11.5990    -0.6380 h1         1 YY7       0.041000
     67 H30          7.2160   -11.6560     2.9220 h1         1 YY7       0.041000
     68 H31          6.6490   -12.5020     1.4760 h1         1 YY7       0.041000
     69 H32          8.3840   -12.3310     1.7780 h1         1 YY7       0.041000
@<TRIPOS>BOND
     1     1     2 1   
     2     1    39 1   
     3     1    40 1   
     4     1    41 1   
     5     2     3 1   
     6     3     4 1   
     7     3     6 1   
     8     4     5 1   
     9     4    12 1   
    10     6     7 1   
    11     6    42 1   
    12     7     8 1   
    13     7    10 1   
    14     8     9 1   
    15     9    43 1   
    16     9    44 1   
    17     9    45 1   
    18    10    11 1   
    19    10    12 1   
    20    12    13 1   
    21    13    14 1   
    22    13    16 1   
    23    14    15 1   
    24    14    25 1   
    25    16    17 1   
    26    16    46 1   
    27    16    47 1   
    28    17    18 1   
    29    17    24 1   
    30    18    19 1   
    31    18    48 1   
    32    19    20 1   
    33    20    21 1   
    34    20    23 1   
    35    21    22 1   
    36    21    49 1   
    37    22    50 1   
    38    22    51 1   
    39    22    52 1   
    40    23    24 1   
    41    24    25 1   
    42    25    26 1   
    43    26    27 1   
    44    26    28 1   
    45    26    53 1   
    46    27    30 1   
    47    27    54 1   
    48    27    55 1   
    49    28    29 1   
    50    28    56 1   
    51    28    57 1   
    52    29    30 1   
    53    29    58 1   
    54    29    59 1   
    55    30    31 1   
    56    31    32 1   
    57    31    33 1   
    58    31    60 1   
    59    33    34 1   
    60    33    60 1   
    61    34    35 1   
    62    34    61 1   
    63    35    36 1   
    64    35    61 1   
    65    35    62 1   
    66    35    63 1   
    67    36    37 1   
    68    36    38 1   
    69    37    64 1   
    70    37    65 1   
    71    37    66 1   
    72    38    67 1   
    73    38    68 1   
    74    38    69 1   
@<TRIPOS>SUBSTRUCTURE
     1 YY7         1 TEMP              0 ****  ****    0 ROOT
