@<TRIPOS>MOLECULE
molecule
   69    72     1     0     0
SMALL
bcc


@<TRIPOS>ATOM
      1 CAI          0.0000     0.0000     0.0000 c3         1 YY7       0.126700
      2 OAG          1.4290     0.0000     0.0000 os         1 YY7      -0.306900
      3 CAA          2.0470     0.0000     1.2110 ca         1 YY7       0.190100
      4 CAB          3.4320    -0.0000     1.2830 ca         1 YY7      -0.027600
      5 ClJ          4.3770     0.0010    -0.1720 cl         1 YY7      -0.070400
      6 CAF          1.2910     0.0050     2.3740 ca         1 YY7      -0.298000
      7 CAE          1.9190     0.0060     3.6100 ca         1 YY7       0.190100
      8 OAH          1.1780     0.0110     4.7500 os         1 YY7      -0.306900
      9 CAJ         -0.2430     0.0150     4.5980 c3         1 YY7       0.126700
     10 CAD          3.3050     0.0010     3.6840 ca         1 YY7      -0.027600
     11 ClK          4.0910     0.0020     5.2320 cl         1 YY7      -0.070400
     12 CAC          4.0610     0.0000     2.5210 ca         1 YY7       0.154600
     13 NAK          5.4600    -0.0050     2.5940 n          1 YY7      -0.402000
     14 CAP          6.1370    -1.1670     2.6290 c          1 YY7       0.838500
     15 OBL          5.5060    -2.2060     2.5920 o          1 YY7      -0.655500
     16 CAL          6.2120     1.2630     2.6300 c3         1 YY7       0.173300
     17 C5           7.7140     1.1570     2.7100 ca         1 YY7      -0.452900
     18 C6           8.5260     2.2650     2.7490 ca         1 YY7       0.538200
     19 N1           9.8410     2.0880     2.8200 nb         1 YY7      -0.815000
     20 C2          10.3610     0.8690     2.8520 ca         1 YY7       0.974900
     21 NAU         11.7360     0.7300     2.9250 nu         1 YY7      -0.895900
     22 CAV         12.5910     1.9180     2.9680 c3         1 YY7       0.238100
     23 N3           9.6070    -0.2200     2.8150 nb         1 YY7      -0.845000
     24 C4           8.2850    -0.1170     2.7440 ca         1 YY7       0.648200
     25 NAO          7.4730    -1.2370     2.6990 n          1 YY7      -0.432300
     26 CAW          8.1040    -2.5590     2.7300 c3         1 YY7       0.103700
     27 CBA          7.6050    -3.4400     1.5570 c3         1 YY7       0.083000
     28 CAX          7.6250    -3.3740     3.9590 c3         1 YY7      -0.112400
     29 CAY          7.7940    -4.8360     3.4920 c3         1 YY7       0.102000
     30 NAZ          7.7920    -4.8270     2.0220 n          1 YY7      -0.486800
     31 CBB          7.9360    -5.9070     1.2290 c          1 YY7       0.686300
     32 OBC          7.9180    -5.7810     0.0200 o          1 YY7      -0.617100
     33 CBD          8.1170    -7.2390     1.8270 ce         1 YY7      -0.242200
     34 CBE          8.2600    -8.3050     1.0450 c2         1 YY7      -0.082200
     35 CBF          8.4440    -9.6690     1.6570 c3         1 YY7       0.185000
     36 NBG          7.4220   -10.5840     1.1320 n3         1 YY7      -0.725600
     37 CBI          7.6140   -10.8180    -0.3060 c3         1 YY7       0.149600
     38 CBH          7.4170   -11.8510     1.8760 c3         1 YY7       0.149600
     39 H1          -0.3610    -0.8860     0.5070 h1         1 YY7       0.045200
     40 H2          -0.3610     0.8830     0.5140 h1         1 YY7       0.045200
     41 H3          -0.3610     0.0040    -1.0210 h1         1 YY7       0.045200
     42 H4           0.2090     0.0000     2.3170 ha         1 YY7       0.153000
     43 H5          -0.5450     0.8970     4.0470 h1         1 YY7       0.045200
     44 H6          -0.7100     0.0230     5.5760 h1         1 YY7       0.045200
     45 H7          -0.5510    -0.8720     4.0580 h1         1 YY7       0.045200
     46 H8           5.8720     1.8270     3.4900 h1         1 YY7       0.053200
     47 H9           5.9650     1.8210     1.7360 h1         1 YY7       0.053200
     48 H10          8.1030     3.2610     2.7240 h4         1 YY7       0.033100
     49 H11         12.1460    -0.1830     2.9350 hn         1 YY7       0.457800
     50 H12         13.6300     1.6140     3.0250 h1         1 YY7       0.042700
     51 H13         12.3420     2.5120     3.8390 h1         1 YY7       0.042700
     52 H14         12.4360     2.5080     2.0730 h1         1 YY7       0.042700
     53 H15          9.1850    -2.4800     2.7180 h1         1 YY7       0.107700
     54 H16          8.2000    -3.2570     0.6700 h1         1 YY7       0.080700
     55 H17          6.5570    -3.2470     1.3630 h1         1 YY7       0.080700
     56 H18          6.5850    -3.1610     4.1760 hc         1 YY7       0.071700
     57 H19          8.2520    -3.1740     4.8190 hc         1 YY7       0.071700
     58 H20          8.7340    -5.2310     3.8560 h1         1 YY7       0.042200
     59 H21          6.9690    -5.4360     3.8570 h1         1 YY7       0.042200
     60 H22          8.1330    -7.3510     2.9050 ha         1 YY7       0.127000
     61 H23          8.2430    -8.1930    -0.0330 ha         1 YY7       0.155000
     62 H24          8.3460    -9.5980     2.7340 h1         1 YY7       0.041200
     63 H25          9.4280   -10.0470     1.4090 h1         1 YY7       0.041200
     64 H27          7.0240   -10.1060    -0.8690 h1         1 YY7       0.033700
     65 H28          8.6610   -10.6970    -0.5540 h1         1 YY7       0.033700
     66 H29          7.2980   -11.8250    -0.5530 h1         1 YY7       0.033700
     67 H30          8.3820   -12.3340     1.7730 h1         1 YY7       0.033700
     68 H31          7.2220   -11.6550     2.9230 h1         1 YY7       0.033700
     69 H32          6.6450   -12.5000     1.4800 h1         1 YY7       0.033700
@<TRIPOS>BOND
     1     9     8 1
     2     8     7 1
     3     7     6 ar
     4     7    10 ar
     5    11    10 1
     6     6     3 ar
     7    10    12 ar
     8    32    31 2
     9     1     2 1
    10    15    14 2
    11     3     2 1
    12     3     4 ar
    13    12     4 ar
    14    12    13 1
    15    31    30 1
    16    31    33 1
    17    27    30 1
    18    27    26 1
    19    34    33 2
    20    34    35 1
    21     4     5 1
    22    13    14 1
    23    13    16 1
    24    14    25 1
    25    30    29 1
    26    26    25 1
    27    26    28 1
    28    35    36 1
    29    25    24 1
    30    29    28 1
    31    16    17 1
    32    36    38 1
    33    36    37 1
    34    24    17 ar
    35    24    23 ar
    36    17    18 ar
    37    23    20 ar
    38    18    19 ar
    39    20    19 ar
    40    20    21 1
    41    22    21 1
    42     1    39 1
    43     1    40 1
    44     1    41 1
    45     6    42 1
    46     9    43 1
    47     9    44 1
    48     9    45 1
    49    16    46 1
    50    16    47 1
    51    18    48 1
    52    21    49 1
    53    22    50 1
    54    22    51 1
    55    22    52 1
    56    26    53 1
    57    27    54 1
    58    27    55 1
    59    28    56 1
    60    28    57 1
    61    29    58 1
    62    29    59 1
    63    33    60 1
    64    34    61 1
    65    35    62 1
    66    35    63 1
    67    37    64 1
    68    37    65 1
    69    37    66 1
    70    38    67 1
    71    38    68 1
    72    38    69 1
@<TRIPOS>SUBSTRUCTURE
     1 YY7         1 TEMP              0 ****  ****    0 ROOT
