@<TRIPOS>MOLECULE
YY9
   79    83     1     0     0
SMALL
bcc


@<TRIPOS>ATOM
      1 CAI          0.0000     0.0000     0.0000 c3         1 YY9       0.244700
      2 OAH          1.4290     0.0000     0.0000 os         1 YY9      -0.293400
      3 CAE          2.0460     0.0000     1.2110 ca         1 YY9       0.203600
      4 CAD          3.4310    -0.0000     1.2840 ca         1 YY9      -0.102100
      5 ClL          4.3760    -0.0000    -0.1710 cl         1 YY9       0.011600
      6 CAF          1.2890     0.0050     2.3740 ca         1 YY9      -0.298000
      7 CAA          1.9180     0.0050     3.6110 ca         1 YY9       0.203600
      8 OAG          1.1760     0.0110     4.7500 os         1 YY9      -0.293400
      9 CAJ         -0.2450     0.0150     4.5980 c3         1 YY9       0.244700
     10 CAB          3.3030     0.0000     3.6860 ca         1 YY9      -0.102100
     11 ClK          4.0890     0.0010     5.2330 cl         1 YY9       0.011600
     12 CAC          4.0610    -0.0000     2.5220 ca         1 YY9       0.023600
     13 NAM          5.4580    -0.0000     2.5970 n          1 YY9      -0.033000
     14 CAR          6.1400     1.1590     2.6330 c          1 YY9       0.622500
     15 OAW          5.5120     2.2000     2.5990 o          1 YY9      -0.707500
     16 CAN          6.2060    -1.2710     2.6420 c3         1 YY9       0.128300
     17 C5           7.7080    -1.1700     2.7220 ca         1 YY9      -0.457900
     18 C6           8.5160    -2.2800     2.7700 ca         1 YY9       0.535200
     19 N1           9.8310    -2.1080     2.8390 nb         1 YY9      -0.716000
     20 C2          10.3560    -0.8920     2.8620 ca         1 YY9       0.735900
     21 NAX         11.7330    -0.7570     2.9350 nu         1 YY9      -0.277300
     22 CAY         12.5400    -1.8910     3.0660 ca         1 YY9      -0.010400
     23 CAZ         12.1900    -3.0740     2.4290 ca         1 YY9      -0.118500
     24 CBA         12.9890    -4.1910     2.5610 ca         1 YY9      -0.084000
     25 CBB         14.1380    -4.1340     3.3290 ca         1 YY9      -0.115000
     26 CBC         14.4900    -2.9580     3.9670 ca         1 YY9      -0.084000
     27 CBD         13.6980    -1.8350     3.8330 ca         1 YY9      -0.118500
     28 N3           9.6050     0.2010     2.8170 nb         1 YY9      -0.729000
     29 C4           8.2840     0.1010     2.7470 ca         1 YY9       0.466200
     30 NAQ          7.4750     1.2250     2.7040 n          1 YY9      -0.033300
     31 CBE          8.1110     2.5440     2.7390 c3         1 YY9       0.012700
     32 CBJ          7.6160     3.3170     3.9630 c3         1 YY9      -0.082400
     33 CBI          8.3080     4.6830     4.0140 c3         1 YY9       0.055500
     34 CBF          7.7520     3.3160     1.4660 c3         1 YY9      -0.082400
     35 CBG          8.4450     4.6820     1.4900 c3         1 YY9       0.055500
     36 NBH          8.0880     5.3730     2.7370 n          1 YY9      -0.143800
     37 CBK          7.5680     6.6160     2.7080 c          1 YY9       0.606300
     38 OBL          7.2930     7.1360     1.6440 o          1 YY9      -0.660100
     39 CBM          7.3310     7.3420     3.9640 ce         1 YY9      -0.251200
     40 CBN          6.9100     8.6040     3.9330 c2         1 YY9      -0.056200
     41 H1          -0.3610    -0.0020    -1.0210 h1         1 YY9      -0.000133
     42 H2          -0.3610     0.8850     0.5090 h1         1 YY9      -0.000133
     43 H3          -0.3610    -0.8840     0.5120 h1         1 YY9      -0.000133
     44 H4           0.2080     0.0050     2.3170 ha         1 YY9       0.145000
     45 H5          -0.5530    -0.8700     4.0560 h1         1 YY9      -0.000133
     46 H6          -0.5470     0.8990     4.0490 h1         1 YY9      -0.000133
     47 H7          -0.7120     0.0210     5.5760 h1         1 YY9      -0.000133
     48 H8           5.8630    -1.8270     3.5060 h1         1 YY9       0.021700
     49 H9           5.9570    -1.8350     1.7510 h1         1 YY9       0.021700
     50 H10          8.0890    -3.2760     2.7520 h4         1 YY9      -0.013900
     51 H11         12.1520     0.1490     2.8570 hn         1 YY9       0.293800
     52 H12         11.2900    -3.1190     1.8270 ha         1 YY9       0.124000
     53 H13         12.7160    -5.1140     2.0640 ha         1 YY9       0.102000
     54 H14         14.7620    -5.0140     3.4330 ha         1 YY9       0.102000
     55 H15         15.3910    -2.9170     4.5660 ha         1 YY9       0.102000
     56 H16         13.9730    -0.9140     4.3320 ha         1 YY9       0.124000
     57 H17          9.1870     2.4300     2.7970 h1         1 YY9       0.067700
     58 H18          6.5450     3.4590     3.8900 hc         1 YY9       0.048700
     59 H19          7.8530     2.7590     4.8610 hc         1 YY9       0.048700
     60 H20          9.3710     4.5440     4.1730 h1         1 YY9       0.029200
     61 H21          7.8880     5.2710     4.8210 h1         1 YY9       0.029200
     62 H22          8.0850     2.7580     0.6000 hc         1 YY9       0.048700
     63 H23          6.6790     3.4570     1.4210 hc         1 YY9       0.048700
     64 H24          9.5180     4.5440     1.4460 h1         1 YY9       0.029200
     65 H25          8.1140     5.2700     0.6420 h1         1 YY9       0.029200
     66 H26          7.4990     6.8510     4.9140 ha         1 YY9       0.117000
     67 H28          6.7420     9.0960     2.9830 ha         1 YY9       0.130000
     68 C1           6.6670     9.3490     5.2210 c3         1 YY9       0.181000
     69 N2           7.4490    10.5930     5.2210 n3         1 YY9      -0.541600
     70 C7           6.9680    11.5180     4.1860 c3         1 YY9       0.181100
     71 C8           7.4270    11.2280     6.5460 c3         1 YY9       0.181100
     72 H27          5.6140     9.5840     5.3100 h1         1 YY9       0.013700
     73 H29          6.9710     8.7310     6.0580 h1         1 YY9       0.013700
     74 H30          5.9180    11.3320     3.9960 h1         1 YY9       0.002033
     75 H31          7.5330    11.3650     3.2750 h1         1 YY9       0.002033
     76 H32          7.0980    12.5390     4.5250 h1         1 YY9       0.002033
     77 H33          6.4070    11.4830     6.8080 h1         1 YY9       0.002033
     78 H34          7.8270    10.5410     7.2820 h1         1 YY9       0.002033
     79 H35          8.0300    12.1280     6.5260 h1         1 YY9       0.002033
@<TRIPOS>BOND
     1     1     2 1   
     2     1    41 1   
     3     1    42 1   
     4     1    43 1   
     5     2     3 1   
     6     3     4 ar  
     7     3     6 ar  
     8     4     5 1   
     9     4    12 ar  
    10     6     7 ar  
    11     6    44 1   
    12     7     8 1   
    13     7    10 ar  
    14     8     9 1   
    15     9    45 1   
    16     9    46 1   
    17     9    47 1   
    18    10    11 1   
    19    10    12 ar  
    20    12    13 1   
    21    13    14 1   
    22    13    16 1   
    23    14    15 2   
    24    14    30 1   
    25    16    17 1   
    26    16    48 1   
    27    16    49 1   
    28    17    18 ar  
    29    17    29 ar  
    30    18    19 ar  
    31    18    50 1   
    32    19    20 ar  
    33    20    21 1   
    34    20    28 ar  
    35    21    22 1   
    36    21    51 1   
    37    22    23 ar  
    38    22    27 ar  
    39    23    24 ar  
    40    23    52 1   
    41    24    25 ar  
    42    24    53 1   
    43    25    26 ar  
    44    25    54 1   
    45    26    27 ar  
    46    26    55 1   
    47    27    56 1   
    48    28    29 ar  
    49    29    30 1   
    50    30    31 1   
    51    31    32 1   
    52    31    34 1   
    53    31    57 1   
    54    32    33 1   
    55    32    58 1   
    56    32    59 1   
    57    33    36 1   
    58    33    60 1   
    59    33    61 1   
    60    34    35 1   
    61    34    62 1   
    62    34    63 1   
    63    35    36 1   
    64    35    64 1   
    65    35    65 1   
    66    36    37 1   
    67    37    38 2   
    68    37    39 1   
    69    39    40 2   
    70    39    66 1   
    71    40    67 1   
    72    40    68 1   
    73    68    69 1   
    74    68    72 1   
    75    68    73 1   
    76    69    70 1   
    77    69    71 1   
    78    70    74 1   
    79    70    75 1   
    80    70    76 1   
    81    71    77 1   
    82    71    78 1   
    83    71    79 1   
@<TRIPOS>SUBSTRUCTURE
     1 YY9         1 TEMP              0 ****  ****    0 ROOT
