@<TRIPOS>MOLECULE
molecule
   79    83     1     0     0
SMALL
bcc


@<TRIPOS>ATOM
      1 CAI          0.0000     0.0000     0.0000 c3         1 YY9       0.126700
      2 OAH          1.4290     0.0000     0.0000 os         1 YY9      -0.306900
      3 CAE          2.0460     0.0000     1.2110 ca         1 YY9       0.190600
      4 CAD          3.4310    -0.0000     1.2840 ca         1 YY9      -0.028100
      5 ClL          4.3760    -0.0000    -0.1710 cl         1 YY9      -0.071400
      6 CAF          1.2890     0.0050     2.3740 ca         1 YY9      -0.299000
      7 CAA          1.9180     0.0050     3.6110 ca         1 YY9       0.190600
      8 OAG          1.1760     0.0110     4.7500 os         1 YY9      -0.306900
      9 CAJ         -0.2450     0.0150     4.5980 c3         1 YY9       0.126700
     10 CAB          3.3030     0.0000     3.6860 ca         1 YY9      -0.028100
     11 ClK          4.0890     0.0010     5.2330 cl         1 YY9      -0.071400
     12 CAC          4.0610    -0.0000     2.5220 ca         1 YY9       0.155600
     13 NAM          5.4580    -0.0000     2.5970 n          1 YY9      -0.403000
     14 CAR          6.1400     1.1590     2.6330 c          1 YY9       0.839500
     15 OAW          5.5120     2.2000     2.5990 o          1 YY9      -0.656500
     16 CAN          6.2060    -1.2710     2.6420 c3         1 YY9       0.172300
     17 C5           7.7080    -1.1700     2.7220 ca         1 YY9      -0.445900
     18 C6           8.5160    -2.2800     2.7700 ca         1 YY9       0.532200
     19 N1           9.8310    -2.1080     2.8390 nb         1 YY9      -0.806000
     20 C2          10.3560    -0.8920     2.8620 ca         1 YY9       0.970900
     21 NAX         11.7330    -0.7570     2.9350 nu         1 YY9      -0.750300
     22 CAY         12.5400    -1.8910     3.0660 ca         1 YY9       0.151600
     23 CAZ         12.1900    -3.0740     2.4290 ca         1 YY9      -0.141500
     24 CBA         12.9890    -4.1910     2.5610 ca         1 YY9      -0.114500
     25 CBB         14.1380    -4.1340     3.3290 ca         1 YY9      -0.144000
     26 CBC         14.4900    -2.9580     3.9670 ca         1 YY9      -0.114500
     27 CBD         13.6980    -1.8350     3.8330 ca         1 YY9      -0.141500
     28 N3           9.6050     0.2010     2.8170 nb         1 YY9      -0.839000
     29 C4           8.2840     0.1010     2.7470 ca         1 YY9       0.646200
     30 NAQ          7.4750     1.2250     2.7040 n          1 YY9      -0.437300
     31 CBE          8.1110     2.5440     2.7390 c3         1 YY9       0.126700
     32 CBJ          7.6160     3.3170     3.9630 c3         1 YY9      -0.124400
     33 CBI          8.3080     4.6830     4.0140 c3         1 YY9       0.110000
     34 CBF          7.7520     3.3160     1.4660 c3         1 YY9      -0.124400
     35 CBG          8.4450     4.6820     1.4900 c3         1 YY9       0.110000
     36 NBH          8.0880     5.3730     2.7370 n          1 YY9      -0.491800
     37 CBK          7.5680     6.6160     2.7080 c          1 YY9       0.658300
     38 OBL          7.2930     7.1360     1.6440 o          1 YY9      -0.576100
     39 CBM          7.3310     7.3420     3.9640 ce         1 YY9      -0.102200
     40 CBN          6.9100     8.6040     3.9330 c2         1 YY9      -0.255200
     41 H1          -0.3610    -0.0050    -1.0210 h1         1 YY9       0.045367
     42 H2          -0.3610    -0.8820     0.5150 h1         1 YY9       0.045367
     43 H3          -0.3610     0.8870     0.5060 h1         1 YY9       0.045367
     44 H4           0.2080     0.0080     2.3170 ha         1 YY9       0.154000
     45 H5          -0.5530    -0.8690     4.0540 h1         1 YY9       0.045367
     46 H6          -0.5480     0.9000     4.0510 h1         1 YY9       0.045367
     47 H7          -0.7120     0.0190     5.5760 h1         1 YY9       0.045367
     48 H8           5.8630    -1.8270     3.5060 h1         1 YY9       0.053700
     49 H9           5.9570    -1.8350     1.7510 h1         1 YY9       0.053700
     50 H10          8.0890    -3.2760     2.7520 h4         1 YY9       0.035100
     51 H11         12.1520     0.1490     2.8570 hn         1 YY9       0.467800
     52 H12         11.2900    -3.1190     1.8270 ha         1 YY9       0.147000
     53 H13         12.7160    -5.1140     2.0640 ha         1 YY9       0.131500
     54 H14         14.7620    -5.0140     3.4330 ha         1 YY9       0.129000
     55 H15         15.3910    -2.9170     4.5660 ha         1 YY9       0.131500
     56 H16         13.9730    -0.9140     4.3320 ha         1 YY9       0.147000
     57 H17          9.1870     2.4300     2.7970 h1         1 YY9       0.093700
     58 H18          7.8530     2.7590     4.8610 hc         1 YY9       0.073450
     59 H19          6.5450     3.4590     3.8900 hc         1 YY9       0.073450
     60 H20          9.3710     4.5440     4.1730 h1         1 YY9       0.057200
     61 H21          7.8880     5.2710     4.8210 h1         1 YY9       0.057200
     62 H22          6.6790     3.4570     1.4210 hc         1 YY9       0.073450
     63 H23          8.0850     2.7580     0.6000 hc         1 YY9       0.073450
     64 H24          9.5180     4.5440     1.4460 h1         1 YY9       0.057200
     65 H25          8.1140     5.2700     0.6420 h1         1 YY9       0.057200
     66 H26          6.8270     6.7060     4.6820 ha         1 YY9       0.062000
     67 H28          6.0990     8.4470     4.6340 ha         1 YY9       0.108000
     68 C1           6.6670     9.3490     5.2210 c3         1 YY9       0.311000
     69 N2           7.4490    10.5930     5.2210 n3         1 YY9      -0.721600
     70 C7           6.9680    11.5180     4.1860 c3         1 YY9       0.149100
     71 C8           7.4270    11.2280     6.5460 c3         1 YY9       0.149100
     72 H27          6.9710     8.7310     6.0580 h1         1 YY9       0.027700
     73 H29          5.6140     9.5840     5.3100 h1         1 YY9       0.027700
     74 H30          5.9010    11.6650     4.3020 h1         1 YY9       0.035867
     75 H31          7.4770    12.4690     4.2870 h1         1 YY9       0.035867
     76 H32          7.1710    11.1010     3.2070 h1         1 YY9       0.035867
     77 H33          7.9810    12.1590     6.5100 h1         1 YY9       0.035867
     78 H34          7.8820    10.5650     7.2720 h1         1 YY9       0.035867
     79 H35          6.4020    11.4290     6.8340 h1         1 YY9       0.035867
@<TRIPOS>BOND
     1     1     2 1
     2     2     3 1
     3     5     4 1
     4     3     4 ar
     5     3     6 ar
     6     4    12 ar
     7     6     7 ar
     8    34    35 1
     9    34    31 1
    10    35    36 1
    11    39    40 2
    12    39    37 1
    13    12    13 1
    14    12    10 ar
    15    13    14 1
    16    13    16 1
    17     7    10 ar
    18     7     8 1
    19    15    14 2
    20    14    30 1
    21     9     8 1
    22    10    11 1
    23    36    37 1
    24    36    33 1
    25    16    17 1
    26    31    30 1
    27    31    32 1
    28    37    38 2
    29    30    29 1
    30    17    29 ar
    31    17    18 ar
    32    29    28 ar
    33    23    24 ar
    34    23    22 ar
    35    18    19 ar
    36    24    25 ar
    37    28    20 ar
    38    19    20 ar
    39    20    21 1
    40    32    33 1
    41    21    22 1
    42    22    27 ar
    43    25    26 ar
    44    27    26 ar
    45     1    41 1
    46     1    42 1
    47     1    43 1
    48     6    44 1
    49     9    45 1
    50     9    46 1
    51     9    47 1
    52    16    48 1
    53    16    49 1
    54    18    50 1
    55    21    51 1
    56    23    52 1
    57    24    53 1
    58    25    54 1
    59    26    55 1
    60    27    56 1
    61    31    57 1
    62    32    58 1
    63    32    59 1
    64    33    60 1
    65    33    61 1
    66    34    62 1
    67    34    63 1
    68    35    64 1
    69    35    65 1
    70    39    66 1
    71    40    67 1
    72    40    68 1
    73    68    69 1
    74    69    70 1
    75    69    71 1
    76    68    72 1
    77    68    73 1
    78    70    74 1
    79    70    75 1
    80    70    76 1
    81    71    77 1
    82    71    78 1
    83    71    79 1
@<TRIPOS>SUBSTRUCTURE
     1 YY9         1 TEMP              0 ****  ****    0 ROOT
