@<TRIPOS>MOLECULE
YYY
   36    37     1     0     0
SMALL
bcc


@<TRIPOS>ATOM
      1 O3B         0.1320   -2.1640    2.0140 o         1 YYY     -0.887500
      2 PB          1.5920   -2.3760    2.0830 p5        1 YYY      1.590800
      3 O1B         2.2520   -2.7960    3.3380 o         1 YYY     -0.887500
      4 O2B         2.3300   -0.9970    1.5850 oh        1 YYY     -0.807400
      5 O3A         2.1470   -3.2810    0.8280 os        1 YYY     -0.832800
      6 PA          2.6930   -4.3760   -0.2380 p5        1 YYY      1.602800
      7 O1A         2.1440   -5.7150    0.0480 o         1 YYY     -0.891000
      8 O2A         4.1390   -4.1260   -0.4700 o         1 YYY     -0.891000
      9 O5'         1.9920   -3.8650   -1.6550 os        1 YYY     -0.590200
     10 C5'         2.5040   -2.7250   -2.2660 c3        1 YYY      0.216400
     11 C4'         3.4060   -3.0840   -3.4610 c3        1 YYY      0.082100
     12 O4'         2.9180   -2.4220   -4.6420 os        1 YYY     -0.425600
     13 C3'         4.8800   -2.6520   -3.2880 c3        1 YYY      0.140100
     14 O3'         5.7160   -3.7350   -2.9340 oh        1 YYY     -0.661800
     15 C2'         5.3050   -2.1280   -4.6630 c3        1 YYY     -0.112400
     16 C1'         4.0400   -2.2370   -5.5490 c3        1 YYY      0.315500
     17 N1          3.8250   -1.1120   -6.4450 n         1 YYY     -0.315400
     18 C2          3.3680   -1.3770   -7.7890 c         1 YYY      0.748500
     19 O2          3.2060   -2.5710   -8.1740 o         1 YYY     -0.706100
     20 N3          3.1590   -0.3260   -8.6830 ne        1 YYY     -0.817100
     21 C4          3.3890    0.9390   -8.2380 cf        1 YYY      0.654500
     22 N4          3.1060    2.0260   -9.1230 nh        1 YYY     -0.880800
     23 C5          3.8830    1.2140   -6.9400 cf        1 YYY     -0.590700
     24 C6          4.0950    0.1530   -6.0340 c1        1 YYY     -0.079900
     25 H5'1        1.6370   -2.1160   -2.6460 h1        1 YYY      0.029200
     26 H5'2        3.0880   -2.1240   -1.5140 h1        1 YYY      0.029200
     27 H4'         3.3610   -4.1920   -3.6530 h1        1 YYY      0.054700
     28 H3'         4.9650   -1.8470   -2.5090 h1        1 YYY      0.045700
     29 H1'         4.0870   -3.1760   -6.1810 h2        1 YYY      0.061700
     30 HA          5.4110   -4.0400   -2.0590 ho        1 YYY      0.473000
     31 H2'1        6.1250   -2.7500   -5.0930 hc        1 YYY      0.056700
     32 H2'2        5.6510   -1.0690   -4.5820 hc        1 YYY      0.056700
     33 H6          2.9870   -1.1390    0.9160 ho        1 YYY      0.425000
     34 H4N1        3.0230    1.7470  -10.0790 hn        1 YYY      0.344800
     35 H4N2        3.8030    2.7360   -9.0270 hn        1 YYY      0.344800
     36 H5          4.0780    2.2330   -6.5990 ha        1 YYY      0.106000
@<TRIPOS>BOND
     1    1    2 1   
     2    2    3 1   
     3    2    4 1   
     4    2    5 1   
     5    4   33 1   
     6    5    6 1   
     7    6    7 1   
     8    6    8 1   
     9    6    9 1   
    10    9   10 1   
    11   10   11 1   
    12   10   25 1   
    13   10   26 1   
    14   11   12 1   
    15   11   13 1   
    16   11   27 1   
    17   12   16 1   
    18   13   14 1   
    19   13   15 1   
    20   13   28 1   
    21   14   30 1   
    22   15   16 1   
    23   15   31 1   
    24   15   32 1   
    25   16   17 1   
    26   16   29 1   
    27   17   18 1   
    28   17   24 2   
    29   18   19 2   
    30   18   20 1   
    31   20   21 2   
    32   21   22 1   
    33   21   23 1   
    34   22   34 1   
    35   22   35 1   
    36   23   24 2   
    37   23   36 1   
@<TRIPOS>SUBSTRUCTURE
     1 YYY         1 TEMP              0 ****  ****    0 ROOT
