@<TRIPOS>MOLECULE
YZ6
   68    69     1     0     0
SMALL
bcc


@<TRIPOS>ATOM
      1 O4          3.7720   -2.0360   -0.2420 o         1 YZ6     -0.415100
      2 C11         3.1540   -0.9890   -0.3310 c         1 YZ6      0.548100
      3 C07         2.5350   -0.1950    0.8220 c3        1 YZ6      0.055100
      4 O6          1.1860    0.0810    0.4830 os        1 YZ6     -0.434600
      5 C25         0.2270   -0.5570    1.3270 c3        1 YZ6      0.108700
      6 C06         3.2670    1.1610    1.0010 c3        1 YZ6      0.102100
      7 O2          4.4290    1.1510    0.1920 oh        1 YZ6     -0.649800
      8 C05         3.5380    1.4130    2.4990 c3        1 YZ6      0.118100
      9 O3          4.1620    0.2800    3.0600 oh        1 YZ6     -0.600800
     10 C04         4.3410    2.7210    2.6830 c3        1 YZ6      0.165300
     11 O1          5.7040    2.3750    2.4890 oh        1 YZ6     -0.639800
     12 C03         3.9940    3.3990    3.9600 c2        1 YZ6     -0.251200
     13 C02         4.5510    3.4460    5.1710 c2        1 YZ6     -0.089200
     14 C01         5.7530    2.8120    5.7990 c3        1 YZ6     -0.033800
     15 C10         6.0070    1.3870    5.3350 c3        1 YZ6     -0.091100
     16 C09         6.9810    3.6790    5.5390 c3        1 YZ6     -0.091100
     17 C08         5.5190    2.7700    7.3150 c3        1 YZ6     -0.091100
     18 N           2.9790   -0.3720   -1.6910 n4        1 YZ6     -0.665800
     19 C12         3.2390   -1.3120   -2.8180 c3        1 YZ6      0.109800
     20 C13         3.2650   -0.6230   -4.1730 c3        1 YZ6     -0.105400
     21 C14         1.9130   -0.0550   -4.5980 c3        1 YZ6     -0.041700
     22 C16         1.5390    1.1680   -3.8500 cc        1 YZ6      0.181000
     23 C19         0.3250    1.7900   -3.6280 cd        1 YZ6     -0.211300
     24 C18         0.6060    3.0260   -2.9290 cd        1 YZ6     -0.247300
     25 C17         1.9720    3.0870   -2.7630 cc        1 YZ6      0.241600
     26 O5          2.5780    1.9540   -3.3140 os        1 YZ6     -0.411800
     27 C15         1.9380    0.2130   -6.0760 ca        1 YZ6     -0.112300
     28 C24         1.2030   -0.6010   -6.9440 ca        1 YZ6     -0.116500
     29 C23         1.2340   -0.3630   -8.3170 ca        1 YZ6     -0.121000
     30 C22         1.9970    0.6860   -8.8300 ca        1 YZ6     -0.108000
     31 C21         2.7280    1.5020   -7.9660 ca        1 YZ6     -0.121000
     32 C20         2.6990    1.2680   -6.5920 ca        1 YZ6     -0.116500
     33 H1          2.6350   -0.8290    1.7520 h1        1 YZ6      0.141700
     34 H2         -0.7550   -0.2020    0.9220 h1        1 YZ6      0.062033
     35 H3          0.3150   -1.6670    1.2460 h1        1 YZ6      0.062033
     36 H4          0.3620   -0.2270    2.3850 h1        1 YZ6      0.062033
     37 H5          2.6070    1.9820    0.5960 h1        1 YZ6      0.090700
     38 H6          5.2150    1.2080    0.7560 ho        1 YZ6      0.462000
     39 H7          2.5460    1.5000    3.0270 h1        1 YZ6      0.097700
     40 H8          5.1230    0.4050    3.0390 ho        1 YZ6      0.439000
     41 H9          4.0630    3.4240    1.8370 h1        1 YZ6      0.055700
     42 H10         6.2450    3.0170    2.9680 ho        1 YZ6      0.447000
     43 H11         3.0650    3.9920    3.8260 ha        1 YZ6      0.129000
     44 H12         4.0260    4.1070    5.8980 ha        1 YZ6      0.132000
     45 H13         5.0460    0.8200    5.2740 hc        1 YZ6      0.043367
     46 H14         6.6810    0.8660    6.0590 hc        1 YZ6      0.043367
     47 H15         6.5060    1.3670    4.3370 hc        1 YZ6      0.043367
     48 H16         7.2280    3.7240    4.4530 hc        1 YZ6      0.043367
     49 H17         6.8060    4.7180    5.9070 hc        1 YZ6      0.043367
     50 H18         7.8610    3.2520    6.0800 hc        1 YZ6      0.043367
     51 H19         4.6240    2.1460    7.5480 hc        1 YZ6      0.043367
     52 H20         5.3590    3.7990    7.7160 hc        1 YZ6      0.043367
     53 H21         6.4080    2.3270    7.8240 hc        1 YZ6      0.043367
     54 H22         2.0210    0.0030   -1.7630 hn        1 YZ6      0.481300
     55 H23         2.4390   -2.1050   -2.7920 hx        1 YZ6      0.105700
     56 H24         4.2360   -1.8080   -2.6280 hx        1 YZ6      0.105700
     57 H25         3.5790   -1.4020   -4.9220 hc        1 YZ6      0.095700
     58 H26         4.0380    0.1910   -4.1950 hc        1 YZ6      0.095700
     59 H27         1.1130   -0.8260   -4.3860 hc        1 YZ6      0.070700
     60 H28        -0.6620    1.4430   -3.9280 ha        1 YZ6      0.180000
     61 H29        -0.1360    3.7580   -2.6170 ha        1 YZ6      0.181000
     62 H30         2.6700    3.8010   -2.3320 h4        1 YZ6      0.065100
     63 H31         0.5960   -1.4290   -6.5480 ha        1 YZ6      0.133500
     64 H32         0.6540   -1.0060   -8.9970 ha        1 YZ6      0.145500
     65 H33         2.0190    0.8730   -9.9140 ha        1 YZ6      0.147000
     66 H34         3.3270    2.3340   -8.3670 ha        1 YZ6      0.145500
     67 H35         3.2660    1.9170   -5.9060 ha        1 YZ6      0.133500
     68 HN3         3.6240    0.4370   -1.7570 hn        1 YZ6      0.481300
@<TRIPOS>BOND
     1    1    2 2
     2    2    3 1
     3    2   18 1
     4    3    4 1
     5    3    6 1
     6    3   33 1
     7    4    5 1
     8    5   34 1
     9    5   35 1
    10    5   36 1
    11    6    7 1
    12    6    8 1
    13    6   37 1
    14    7   38 1
    15    8    9 1
    16    8   10 1
    17    8   39 1
    18    9   40 1
    19   10   11 1
    20   10   12 1
    21   10   41 1
    22   11   42 1
    23   12   13 2
    24   12   43 1
    25   13   14 1
    26   13   44 1
    27   14   15 1
    28   14   16 1
    29   14   17 1
    30   15   45 1
    31   15   46 1
    32   15   47 1
    33   16   48 1
    34   16   49 1
    35   16   50 1
    36   17   51 1
    37   17   52 1
    38   17   53 1
    39   18   19 1
    40   18   54 1
    41   18   68 1
    42   19   20 1
    43   19   55 1
    44   19   56 1
    45   20   21 1
    46   20   57 1
    47   20   58 1
    48   21   22 1
    49   21   27 1
    50   21   59 1
    51   22   23 2
    52   22   26 1
    53   23   24 1
    54   23   60 1
    55   24   25 2
    56   24   61 1
    57   25   26 1
    58   25   62 1
    59   27   28 ar
    60   27   32 ar
    61   28   29 ar
    62   28   63 1
    63   29   30 ar
    64   29   64 1
    65   30   31 ar
    66   30   65 1
    67   31   32 ar
    68   31   66 1
    69   32   67 1
@<TRIPOS>SUBSTRUCTURE
     1 YZ6         1 TEMP              0 ****  ****    0 ROOT
