@<TRIPOS>MOLECULE
YZ9
   27    28     1     0     0
SMALL
bcc


@<TRIPOS>ATOM
      1 C3          0.0520   -0.0390    0.1090 c3        1 YZ9     -0.101100
      2 C11         1.5580   -0.0100    0.0280 c3        1 YZ9      0.140400
      3 O1          4.1040    0.0370    0.5620 o         1 YZ9     -0.558000
      4 O2          2.0260   -0.0080    1.3930 os        1 YZ9     -0.405900
      5 C6          6.9930    0.0680    4.9250 ca        1 YZ9     -0.024000
      6 C5          5.1640    0.0420    3.2280 cc        1 YZ9      0.078800
      7 C4          5.0480    0.0210    6.9720 ca        1 YZ9     -0.257000
      8 O3          3.3180   -0.0040    5.3720 os        1 YZ9     -0.331200
      9 C2          5.6250    0.0440    4.5840 ca        1 YZ9     -0.219800
     10 C1          4.6660    0.0200    5.6190 ca        1 YZ9      0.218100
     11 C7          2.8540   -0.0060    4.0440 c         1 YZ9      0.740800
     12 C12         3.3770    0.0170    1.5640 c         1 YZ9      0.656300
     13 O4          6.8860    0.0470    8.5520 oh        1 YZ9     -0.483100
     14 O5          1.6290   -0.0290    4.0360 o         1 YZ9     -0.526500
     15 C10         7.3930    0.0690    6.2450 ca        1 YZ9     -0.189000
     16 C9          3.8280    0.0180    2.9610 cd        1 YZ9     -0.269400
     17 C8          6.4120    0.0450    7.2670 ca        1 YZ9      0.193100
     18 H31        -0.3660   -0.0420   -0.9260 hc        1 YZ9      0.050700
     19 H32        -0.3290    0.8550    0.6580 hc        1 YZ9      0.050700
     20 H33        -0.2940   -0.9540    0.6480 hc        1 YZ9      0.050700
     21 H111        1.9730   -0.9120   -0.4910 h1        1 YZ9      0.051700
     22 H112        1.9370    0.9140   -0.4810 h1        1 YZ9      0.051700
     23 H6          7.7440    0.0870    4.1190 ha        1 YZ9      0.148000
     24 H5          5.9020    0.0610    2.4060 ha        1 YZ9      0.172000
     25 H4          4.2810    0.0020    7.7580 ha        1 YZ9      0.166000
     26 HO4         6.1300    0.0290    9.1590 ho        1 YZ9      0.432000
     27 H10         8.4550    0.0870    6.5270 ha        1 YZ9      0.163000
@<TRIPOS>BOND
     1    1    2 1
     2    1   18 1
     3    1   19 1
     4    1   20 1
     5    2    4 1
     6    2   21 1
     7    2   22 1
     8    3   12 2
     9    4   12 1
    10    5    9 ar
    11    5   15 ar
    12    5   23 1
    13    6    9 1
    14    6   16 2
    15    6   24 1
    16    7   10 ar
    17    7   17 ar
    18    7   25 1
    19    8   10 1
    20    8   11 1
    21    9   10 ar
    22   11   14 2
    23   11   16 1
    24   12   16 1
    25   13   17 1
    26   13   26 1
    27   15   17 ar
    28   15   27 1
@<TRIPOS>SUBSTRUCTURE
     1 YZ9         1 TEMP              0 ****  ****    0 ROOT
