@<TRIPOS>MOLECULE
YZE
   51    51     1     0     0
SMALL
bcc


@<TRIPOS>ATOM
      1 C2           0.0000     0.0000     0.0000 c2         1 YZE      -0.244000
      2 C4           1.3100     0.0000     0.0000 c2         1 YZE      -0.098200
      3 C5           2.0640     0.0000     1.3040 c3         1 YZE       0.004800
      4 C6           3.0340    -1.1810     1.3320 c3         1 YZE      -0.070300
      5 C7           3.8750    -1.1110     2.5820 c          1 YZE       0.979600
      6 O8           3.8440    -2.0170     3.3820 o          1 YZE      -0.905300
      7 O9           4.6560    -0.0440     2.8060 o          1 YZE      -0.905300
      8 N10          2.2780    -2.4360     1.3220 ns         1 YZE      -0.190900
      9 C11          2.8460    -3.5620     0.8480 c          1 YZE       0.598100
     10 N12          2.1510    -4.7160     0.8380 ns         1 YZE      -0.195900
     11 C13          2.7690    -5.9400     0.3220 c3         1 YZE      -0.073300
     12 C14          2.0930    -7.1580     0.9560 c3         1 YZE      -0.023400
     13 C15          2.3690    -7.1690     2.4600 c3         1 YZE      -0.037400
     14 C16          1.6940    -8.3870     3.0930 c3         1 YZE      -0.043400
     15 C17          1.9690    -8.3970     4.5990 c3         1 YZE       0.039000
     16 N18          1.3230    -9.5650     5.2050 ns         1 YZE      -0.181900
     17 C19          1.4320    -9.7810     6.5310 c          1 YZE       0.576700
     18 C20          0.7790   -10.9580     7.1430 ca         1 YZE      -0.134600
     19 C21          0.8890   -11.1850     8.5160 ca         1 YZE      -0.056000
     20 C22          0.2780   -12.2850     9.0810 ca         1 YZE      -0.102500
     21 C23         -0.4430   -13.1630     8.2900 ca         1 YZE       0.226900
     22 I24         -1.3670   -14.8310     9.1580 i          1 YZE      -0.333900
     23 C25         -0.5560   -12.9430     6.9280 ca         1 YZE      -0.102500
     24 C26          0.0460   -11.8440     6.3520 ca         1 YZE      -0.056000
     25 O27          2.0650    -9.0090     7.2240 o          1 YZE      -0.646100
     26 C28          2.6010    -5.9950    -1.1740 c          1 YZE       0.978600
     27 O29          2.0250    -5.1030    -1.7520 o          1 YZE      -0.905800
     28 O30          3.0930    -7.0350    -1.8670 o          1 YZE      -0.905800
     29 O31          3.9880    -3.5370     0.4280 o          1 YZE      -0.714100
     30 H2          -0.5420     0.0000     0.9380 ha         1 YZE       0.072500
     31 H2A         -0.5420     0.0000    -0.9380 ha         1 YZE       0.072500
     32 H4           1.8520     0.0000    -0.9380 ha         1 YZE       0.098000
     33 H5           1.3630    -0.0890     2.1260 hc         1 YZE       0.025200
     34 H5A          2.6180     0.9260     1.4010 hc         1 YZE       0.025200
     35 H6           3.6780    -1.1400     0.4610 h1         1 YZE       0.058700
     36 HN10         1.3390    -2.4570     1.6680 hn         1 YZE       0.140500
     37 HN12         1.2110    -4.7370     1.1820 hn         1 YZE       0.138500
     38 H13          3.8240    -5.9430     0.5670 h1         1 YZE       0.060700
     39 H14          2.4880    -8.0630     0.5100 hc         1 YZE       0.018200
     40 H15          3.4380    -7.2200     2.6310 hc         1 YZE       0.026700
     41 H16          0.6260    -8.3370     2.9220 hc         1 YZE       0.008200
     42 H16A         2.0900    -9.2920     2.6480 hc         1 YZE       0.008200
     43 H17          1.5730    -7.4930     5.0440 h1         1 YZE       0.035200
     44 H17A         3.0380    -8.4460     4.7700 h1         1 YZE       0.035200
     45 HN18         0.8160   -10.2100     4.6330 hn         1 YZE       0.172500
     46 H21          1.4530   -10.4990     9.1360 ha         1 YZE       0.124000
     47 H22          0.3630   -12.4630    10.1470 ha         1 YZE       0.116000
     48 H25         -1.1230   -13.6320     6.3140 ha         1 YZE       0.116000
     49 H26         -0.0430   -11.6730     5.2860 ha         1 YZE       0.124000
     50 H23          1.0250    -7.1080     0.7850 hc         1 YZE       0.018200
     51 H24          1.9750    -6.2650     2.9070 hc         1 YZE       0.026700
@<TRIPOS>BOND
     1     1     2 2   
     2     1    30 1   
     3     1    31 1   
     4     2     3 1   
     5     2    32 1   
     6     3     4 1   
     7     3    33 1   
     8     3    34 1   
     9     4     5 1   
    10     4     8 1   
    11     4    35 1   
    12     5     6 1   
    13     5     7 1   
    14     8     9 1   
    15     8    36 1   
    16     9    10 1   
    17     9    29 2   
    18    10    11 1   
    19    10    37 1   
    20    11    12 1   
    21    11    26 1   
    22    11    38 1   
    23    12    13 1   
    24    12    39 1   
    25    12    50 1   
    26    13    14 1   
    27    13    40 1   
    28    13    51 1   
    29    14    15 1   
    30    14    41 1   
    31    14    42 1   
    32    15    16 1   
    33    15    43 1   
    34    15    44 1   
    35    16    17 1   
    36    16    45 1   
    37    17    18 1   
    38    17    25 2   
    39    18    19 ar  
    40    18    24 ar  
    41    19    20 ar  
    42    19    46 1   
    43    20    21 ar  
    44    20    47 1   
    45    21    22 1   
    46    21    23 ar  
    47    23    24 ar  
    48    23    48 1   
    49    24    49 1   
    50    26    27 1   
    51    26    28 1   
@<TRIPOS>SUBSTRUCTURE
     1 YZE         1 TEMP              0 ****  ****    0 ROOT
