@<TRIPOS>MOLECULE
molecule
   51    51     1     0     0
SMALL
bcc


@<TRIPOS>ATOM
      1 C2           0.0000     0.0000     0.0000 c2         1 YZE      -0.287000
      2 C4           1.3100     0.0000     0.0000 c2         1 YZE      -0.121200
      3 C5           2.0640     0.0000     1.3040 c3         1 YZE      -0.055200
      4 C6           3.0340    -1.1810     1.3320 c3         1 YZE       0.035700
      5 C7           3.8750    -1.1110     2.5820 c          1 YZE       0.887600
      6 O8           3.8440    -2.0170     3.3820 o          1 YZE      -0.854800
      7 O9           4.6560    -0.0440     2.8060 o          1 YZE      -0.854800
      8 N10          2.2780    -2.4360     1.3220 ns         1 YZE      -0.581900
      9 C11          2.8460    -3.5620     0.8480 c          1 YZE       0.803100
     10 N12          2.1510    -4.7160     0.8380 ns         1 YZE      -0.585900
     11 C13          2.7690    -5.9400     0.3220 c3         1 YZE       0.033700
     12 C14          2.0930    -7.1580     0.9560 c3         1 YZE      -0.075400
     13 C15          2.3690    -7.1690     2.4600 c3         1 YZE      -0.084400
     14 C16          1.6940    -8.3870     3.0930 c3         1 YZE      -0.102400
     15 C17          1.9690    -8.3970     4.5990 c3         1 YZE       0.103000
     16 N18          1.3230    -9.5650     5.2050 ns         1 YZE      -0.572900
     17 C19          1.4320    -9.7810     6.5310 c          1 YZE       0.657700
     18 C20          0.7790   -10.9580     7.1430 ca         1 YZE      -0.116600
     19 C21          0.8890   -11.1850     8.5160 ca         1 YZE      -0.091500
     20 C22          0.2780   -12.2850     9.0810 ca         1 YZE      -0.113000
     21 C23         -0.4430   -13.1630     8.2900 ca         1 YZE       0.066900
     22 I24         -1.3670   -14.8310     9.1580 i          1 YZE      -0.194900
     23 C25         -0.5560   -12.9430     6.9280 ca         1 YZE      -0.113000
     24 C26          0.0460   -11.8440     6.3520 ca         1 YZE      -0.091500
     25 O27          2.0650    -9.0090     7.2240 o          1 YZE      -0.603100
     26 C28          2.6010    -5.9950    -1.1740 c          1 YZE       0.886600
     27 O29          2.0250    -5.1030    -1.7520 o          1 YZE      -0.855300
     28 O30          3.0930    -7.0350    -1.8670 o          1 YZE      -0.855300
     29 O31          3.9880    -3.5370     0.4280 o          1 YZE      -0.668100
     30 H2          -0.5420     0.0000    -0.9380 ha         1 YZE       0.092000
     31 H2A         -0.5420     0.0000     0.9380 ha         1 YZE       0.092000
     32 H4           1.8520     0.0000    -0.9380 ha         1 YZE       0.122000
     33 H5           1.3630    -0.0890     2.1260 hc         1 YZE       0.051700
     34 H5A          2.6180     0.9260     1.4010 hc         1 YZE       0.051700
     35 H6           3.6780    -1.1400     0.4610 h1         1 YZE       0.077700
     36 HN10         1.3390    -2.4570     1.6680 hn         1 YZE       0.280500
     37 HN12         1.2110    -4.7370     1.1820 hn         1 YZE       0.278500
     38 H13          3.8240    -5.9430     0.5670 h1         1 YZE       0.078700
     39 H14          1.0250    -7.1080     0.7850 hc         1 YZE       0.043200
     40 H15          1.9750    -6.2650     2.9070 hc         1 YZE       0.053700
     41 H16          0.6260    -8.3370     2.9220 hc         1 YZE       0.034700
     42 H16A         2.0900    -9.2920     2.6480 hc         1 YZE       0.034700
     43 H17          3.0380    -8.4460     4.7700 h1         1 YZE       0.061700
     44 H17A         1.5730    -7.4930     5.0440 h1         1 YZE       0.061700
     45 HN18         0.8160   -10.2100     4.6330 hn         1 YZE       0.308500
     46 H21          1.4530   -10.4990     9.1360 ha         1 YZE       0.152500
     47 H22          0.3630   -12.4630    10.1470 ha         1 YZE       0.139000
     48 H25         -1.1230   -13.6320     6.3140 ha         1 YZE       0.139000
     49 H26         -0.0430   -11.6730     5.2860 ha         1 YZE       0.152500
     50 H23          2.4880    -8.0630     0.5100 hc         1 YZE       0.043200
     51 H24          3.4380    -7.2200     2.6310 hc         1 YZE       0.053700
@<TRIPOS>BOND
     1     1    30 1
     2     1    31 1
     3     2     1 2
     4     2     3 1
     5     2    32 1
     6     3     4 1
     7     3    33 1
     8     3    34 1
     9     4     8 1
    10     4    35 1
    11     5     4 1
    12     5     7 1
    13     6     5 1
    14     8     9 1
    15     8    36 1
    16     9    10 1
    17    10    11 1
    18    10    37 1
    19    11    26 1
    20    11    38 1
    21    12    11 1
    22    12    13 1
    23    12    39 1
    24    13    40 1
    25    14    13 1
    26    14    15 1
    27    14    41 1
    28    14    42 1
    29    15    16 1
    30    15    43 1
    31    15    44 1
    32    16    17 1
    33    16    45 1
    34    17    18 1
    35    18    19 ar
    36    18    24 ar
    37    19    20 ar
    38    19    46 1
    39    20    21 ar
    40    20    47 1
    41    21    22 1
    42    23    21 ar
    43    23    48 1
    44    24    23 ar
    45    24    49 1
    46    25    17 2
    47    26    27 1
    48    26    28 1
    49    29     9 2
    50    12    50 1
    51    13    51 1
@<TRIPOS>SUBSTRUCTURE
     1 YZE         1 TEMP              0 ****  ****    0 ROOT
