@<TRIPOS>MOLECULE
YZY
  112   111     1     0     0
SMALL
bcc


@<TRIPOS>ATOM
      1 O1          1.2940    0.3800    0.1710 oh        1 YZY     -0.595800
      2 C1          2.4910    0.9940    0.5930 c3        1 YZY      0.122400
      3 C2          2.8980    0.5950    2.0130 c3        1 YZY      0.102100
      4 O2          2.4870   -0.7570    2.2730 os        1 YZY     -0.435900
      5 C3          3.3070   -1.7650    1.8340 c         1 YZY      0.642100
      6 O3          4.3780   -1.4620    1.3050 o         1 YZY     -0.543000
      7 C4          2.7210   -3.1190    2.0820 c3        1 YZY     -0.126400
      8 C5          3.8000   -4.1270    2.4170 c3        1 YZY     -0.079400
      9 C6          3.2170   -5.5190    2.5270 c3        1 YZY     -0.078400
     10 C7          4.2880   -6.5300    2.8800 c3        1 YZY     -0.079400
     11 C8          3.7100   -7.9250    2.9860 c3        1 YZY     -0.079400
     12 C9          4.7800   -8.9360    3.3400 c3        1 YZY     -0.079400
     13 C10         4.2030  -10.3320    3.4460 c3        1 YZY     -0.079400
     14 C11         5.2730  -11.3420    3.7990 c3        1 YZY     -0.079400
     15 C12         4.6970  -12.7380    3.9050 c3        1 YZY     -0.079400
     16 C13         5.7670  -13.7490    4.2580 c3        1 YZY     -0.079400
     17 C14         5.1910  -15.1450    4.3650 c3        1 YZY     -0.078400
     18 C15         6.2600  -16.1550    4.7180 c3        1 YZY     -0.079400
     19 C16         5.6840  -17.5510    4.8240 c3        1 YZY     -0.079400
     20 C17         6.7540  -18.5630    5.1770 c3        1 YZY     -0.080400
     21 C18         6.1850  -19.9540    5.2840 c3        1 YZY     -0.092100
     22 C19         2.2430    1.4490    3.0980 c3        1 YZY      0.136400
     23 O4          0.8530    1.5790    2.7690 os        1 YZY     -0.455900
     24 C20         0.0420    2.1420    3.7210 c         1 YZY      0.637100
     25 O5          0.5620    2.5260    4.7690 o         1 YZY     -0.536000
     26 C21        -1.3930    2.1800    3.2990 c3        1 YZY     -0.127400
     27 C22        -2.0390    3.4920    3.6940 c3        1 YZY     -0.079400
     28 C23        -3.5210    3.4720    3.3890 c3        1 YZY     -0.079400
     29 C24        -4.1710    4.7870    3.7660 c3        1 YZY     -0.079400
     30 C25        -5.6540    4.7710    3.4650 c3        1 YZY     -0.079400
     31 C26        -6.3040    6.0850    3.8420 c3        1 YZY     -0.077400
     32 C27        -7.7880    6.0680    3.5390 c3        1 YZY     -0.048200
     33 C28        -8.4490    7.3440    3.8980 c2        1 YZY     -0.175200
     34 C29        -9.7480    7.5900    3.6940 c2        1 YZY     -0.172200
     35 C30       -10.6830    6.6180    3.0810 c3        1 YZY     -0.049200
     36 C31       -12.1000    7.1490    3.0100 c3        1 YZY     -0.077400
     37 C32       -13.0320    6.1360    2.3800 c3        1 YZY     -0.079400
     38 C33       -14.4490    6.6650    2.3080 c3        1 YZY     -0.079400
     39 C34       -15.3820    5.6540    1.6780 c3        1 YZY     -0.079400
     40 C35       -16.7980    6.1820    1.6060 c3        1 YZY     -0.079400
     41 C36       -17.7320    5.1710    0.9760 c3        1 YZY     -0.080400
     42 C37       -19.1440    5.6940    0.9020 c3        1 YZY     -0.092100
     43 H1O         0.6460    0.4860    0.8800 ho        1 YZY      0.416000
     44 H11         2.3910    2.1110    0.5430 h1        1 YZY      0.056700
     45 H12         3.2660    0.6400   -0.1400 h1        1 YZY      0.056700
     46 H21         4.0160    0.6800    2.1250 h1        1 YZY      0.087700
     47 H41         2.1780   -3.4210    1.1460 hc        1 YZY      0.081200
     48 H42         1.9660   -3.0580    2.9100 hc        1 YZY      0.081200
     49 H51         4.5930   -4.1030    1.6220 hc        1 YZY      0.057700
     50 H52         4.2930   -3.8440    3.3840 hc        1 YZY      0.057700
     51 H61         2.4140   -5.5320    3.3110 hc        1 YZY      0.041700
     52 H62         2.7360   -5.8050    1.5550 hc        1 YZY      0.041700
     53 H71         5.0920   -6.5140    2.0980 hc        1 YZY      0.042700
     54 H72         4.7670   -6.2460    3.8540 hc        1 YZY      0.042700
     55 H81         3.2310   -8.2100    2.0120 hc        1 YZY      0.040200
     56 H82         2.9050   -7.9410    3.7670 hc        1 YZY      0.040200
     57 H91         5.2590   -8.6520    4.3140 hc        1 YZY      0.040200
     58 H92         5.5850   -8.9200    2.5590 hc        1 YZY      0.040200
     59 H101        3.3980  -10.3480    4.2270 hc        1 YZY      0.039700
     60 H102        3.7240  -10.6160    2.4720 hc        1 YZY      0.039700
     61 H111        5.7520  -11.0580    4.7730 hc        1 YZY      0.039700
     62 H112        6.0780  -11.3260    3.0180 hc        1 YZY      0.039700
     63 H121        3.8920  -12.7540    4.6870 hc        1 YZY      0.039700
     64 H122        4.2180  -13.0220    2.9320 hc        1 YZY      0.039700
     65 H131        6.5720  -13.7330    3.4770 hc        1 YZY      0.039700
     66 H132        6.2460  -13.4650    5.2320 hc        1 YZY      0.039700
     67 H141        4.7110  -15.4290    3.3910 hc        1 YZY      0.039700
     68 H142        4.3860  -15.1610    5.1460 hc        1 YZY      0.039700
     69 H151        6.7400  -15.8710    5.6910 hc        1 YZY      0.039700
     70 H152        7.0650  -16.1390    3.9360 hc        1 YZY      0.039700
     71 H161        5.2050  -17.8360    3.8500 hc        1 YZY      0.039700
     72 H162        4.8800  -17.5670    5.6060 hc        1 YZY      0.039700
     73 H171        7.2330  -18.2760    6.1500 hc        1 YZY      0.038700
     74 H172        7.5580  -18.5440    4.3950 hc        1 YZY      0.038700
     75 H181        6.9890  -20.6840    5.5450 hc        1 YZY      0.032700
     76 H182        5.7240  -20.2680    4.3160 hc        1 YZY      0.032700
     77 H183        5.3980  -19.9990    6.0760 hc        1 YZY      0.032700
     78 H191        2.7010    2.4720    3.1110 h1        1 YZY      0.068200
     79 H192        2.3460    0.9690    4.1060 h1        1 YZY      0.068200
     80 H211       -1.9120    1.3220    3.8050 hc        1 YZY      0.079700
     81 H212       -1.4670    2.0220    2.1910 hc        1 YZY      0.079700
     82 H221       -1.8740    3.6750    4.7890 hc        1 YZY      0.057700
     83 H222       -1.5490    4.3350    3.1390 hc        1 YZY      0.057700
     84 H231       -4.0120    2.6350    3.9530 hc        1 YZY      0.041700
     85 H232       -3.6790    3.2740    2.2960 hc        1 YZY      0.041700
     86 H241       -4.0100    4.9860    4.8580 hc        1 YZY      0.043200
     87 H242       -3.6810    5.6240    3.2010 hc        1 YZY      0.043200
     88 H251       -5.8140    4.5710    2.3720 hc        1 YZY      0.040700
     89 H252       -6.1440    3.9330    4.0290 hc        1 YZY      0.040700
     90 H261       -6.1450    6.2830    4.9340 hc        1 YZY      0.042700
     91 H262       -5.8140    6.9220    3.2780 hc        1 YZY      0.042700
     92 H271       -7.9460    5.8600    2.4440 hc        1 YZY      0.047700
     93 H272       -8.2760    5.2230    4.1000 hc        1 YZY      0.047700
     94 H281       -7.8040    8.1090    4.3590 ha        1 YZY      0.122000
     95 H291      -10.1820    8.5600    3.9850 ha        1 YZY      0.122000
     96 H301      -10.3260    6.3590    2.0460 hc        1 YZY      0.047200
     97 H302      -10.6700    5.6610    3.6730 hc        1 YZY      0.047200
     98 H311      -12.4600    7.4010    4.0420 hc        1 YZY      0.041700
     99 H312      -12.1160    8.0980    2.4120 hc        1 YZY      0.041700
    100 H321      -13.0160    5.1870    2.9780 hc        1 YZY      0.039700
    101 H322      -12.6720    5.8840    1.3480 hc        1 YZY      0.039700
    102 H331      -14.4650    7.6150    1.7110 hc        1 YZY      0.039700
    103 H332      -14.8090    6.9180    3.3400 hc        1 YZY      0.039700
    104 H341      -15.0210    5.4010    0.6460 hc        1 YZY      0.039700
    105 H342      -15.3650    4.7040    2.2750 hc        1 YZY      0.039700
    106 H351      -17.1590    6.4340    2.6380 hc        1 YZY      0.039700
    107 H352      -16.8150    7.1320    1.0090 hc        1 YZY      0.039700
    108 H361      -17.7130    4.2210    1.5730 hc        1 YZY      0.038700
    109 H362      -17.3690    4.9190   -0.0560 hc        1 YZY      0.038700
    110 H371      -19.8150    4.9330    0.4340 hc        1 YZY      0.032700
    111 H372      -19.5320    5.9270    1.9230 hc        1 YZY      0.032700
    112 H373      -19.1880    6.6270    0.2890 hc        1 YZY      0.032700
@<TRIPOS>BOND
     1    1    2 1   
     2    1   43 1   
     3    2    3 1   
     4    2   44 1   
     5    2   45 1   
     6    3    4 1   
     7    3   22 1   
     8    3   46 1   
     9    4    5 1   
    10    5    6 2   
    11    5    7 1   
    12    7    8 1   
    13    7   47 1   
    14    7   48 1   
    15    8    9 1   
    16    8   49 1   
    17    8   50 1   
    18    9   10 1   
    19    9   51 1   
    20    9   52 1   
    21   10   11 1   
    22   10   53 1   
    23   10   54 1   
    24   11   12 1   
    25   11   55 1   
    26   11   56 1   
    27   12   13 1   
    28   12   57 1   
    29   12   58 1   
    30   13   14 1   
    31   13   59 1   
    32   13   60 1   
    33   14   15 1   
    34   14   61 1   
    35   14   62 1   
    36   15   16 1   
    37   15   63 1   
    38   15   64 1   
    39   16   17 1   
    40   16   65 1   
    41   16   66 1   
    42   17   18 1   
    43   17   67 1   
    44   17   68 1   
    45   18   19 1   
    46   18   69 1   
    47   18   70 1   
    48   19   20 1   
    49   19   71 1   
    50   19   72 1   
    51   20   21 1   
    52   20   73 1   
    53   20   74 1   
    54   21   75 1   
    55   21   76 1   
    56   21   77 1   
    57   22   23 1   
    58   22   78 1   
    59   22   79 1   
    60   23   24 1   
    61   24   25 2   
    62   24   26 1   
    63   26   27 1   
    64   26   80 1   
    65   26   81 1   
    66   27   28 1   
    67   27   82 1   
    68   27   83 1   
    69   28   29 1   
    70   28   84 1   
    71   28   85 1   
    72   29   30 1   
    73   29   86 1   
    74   29   87 1   
    75   30   31 1   
    76   30   88 1   
    77   30   89 1   
    78   31   32 1   
    79   31   90 1   
    80   31   91 1   
    81   32   33 1   
    82   32   92 1   
    83   32   93 1   
    84   33   34 2   
    85   33   94 1   
    86   34   35 1   
    87   34   95 1   
    88   35   36 1   
    89   35   96 1   
    90   35   97 1   
    91   36   37 1   
    92   36   98 1   
    93   36   99 1   
    94   37   38 1   
    95   37  100 1   
    96   37  101 1   
    97   38   39 1   
    98   38  102 1   
    99   38  103 1   
   100   39   40 1   
   101   39  104 1   
   102   39  105 1   
   103   40   41 1   
   104   40  106 1   
   105   40  107 1   
   106   41   42 1   
   107   41  108 1   
   108   41  109 1   
   109   42  110 1   
   110   42  111 1   
   111   42  112 1   
@<TRIPOS>SUBSTRUCTURE
     1 YZY         1 TEMP              0 ****  ****    0 ROOT
