@<TRIPOS>MOLECULE
molecule
  112   111     1     0     0
SMALL
bcc


@<TRIPOS>ATOM
      1 O1           0.0000     0.0000     0.0000 oh         1 YZY      -0.582800
      2 C1           1.4290     0.0000     0.0000 c3         1 YZY       0.123400
      3 C2           1.9380     0.0000     1.4430 c3         1 YZY       0.149100
      4 O2           1.5540    -1.2410     2.0920 os         1 YZY      -0.406900
      5 C3           2.4140    -2.2670     2.0040 c          1 YZY       0.628100
      6 O3           3.4540    -2.1340     1.4040 o          1 YZY      -0.560000
      7 C4           2.0830    -3.5860     2.6530 c3         1 YZY      -0.125400
      8 C5           3.2220    -4.5770     2.4040 c3         1 YZY      -0.073400
      9 C6           2.8850    -5.9160     3.0640 c3         1 YZY      -0.084400
     10 C7           4.0240    -6.9070     2.8150 c3         1 YZY      -0.080400
     11 C8           3.6880    -8.2460     3.4740 c3         1 YZY      -0.082400
     12 C9           4.8270    -9.2380     3.2260 c3         1 YZY      -0.081400
     13 C10          4.4910   -10.5770     3.8850 c3         1 YZY      -0.082400
     14 C11          5.6300   -11.5680     3.6360 c3         1 YZY      -0.082400
     15 C12          5.2930   -12.9070     4.2960 c3         1 YZY      -0.082400
     16 C13          6.4320   -13.8980     4.0470 c3         1 YZY      -0.082400
     17 C14          6.0950   -15.2370     4.7060 c3         1 YZY      -0.082400
     18 C15          7.2350   -16.2280     4.4570 c3         1 YZY      -0.082400
     19 C16          6.8990   -17.5670     5.1160 c3         1 YZY      -0.081400
     20 C17          8.0370   -18.5590     4.8680 c3         1 YZY      -0.084400
     21 C18          7.7010   -19.8970     5.5270 c3         1 YZY      -0.092100
     22 C19          1.3280     1.1810     2.1990 c3         1 YZY       0.155400
     23 O4          -0.1200     1.1270     2.0960 os         1 YZY      -0.387900
     24 C20         -0.8110     2.1000     2.7090 c          1 YZY       0.628100
     25 O5          -0.2260     2.9690     3.3130 o          1 YZY      -0.564000
     26 C21         -2.3160     2.1090     2.6470 c3         1 YZY      -0.124400
     27 C22         -2.8520     3.3140     3.4210 c3         1 YZY      -0.072400
     28 C23         -4.3810     3.3230     3.3570 c3         1 YZY      -0.083400
     29 C24         -4.9170     4.5280     4.1320 c3         1 YZY      -0.078400
     30 C25         -6.4450     4.5380     4.0680 c3         1 YZY      -0.087400
     31 C26         -6.9810     5.7430     4.8430 c3         1 YZY      -0.034400
     32 C27         -8.5100     5.7520     4.7790 c3         1 YZY      -0.149200
     33 C28         -9.0380     6.9390     5.5420 c2         1 YZY      -0.336200
     34 C29         -9.8800     7.7640     4.9710 c2         1 YZY      -0.344200
     35 C30        -10.4540     7.4350     3.6160 c3         1 YZY      -0.145200
     36 C31        -11.9820     7.5000     3.6810 c3         1 YZY      -0.034400
     37 C32        -12.5640     7.1660     2.3050 c3         1 YZY      -0.087400
     38 C33        -14.0910     7.2300     2.3690 c3         1 YZY      -0.080400
     39 C34        -14.6730     6.8970     0.9940 c3         1 YZY      -0.082400
     40 C35        -16.2010     6.9600     1.0570 c3         1 YZY      -0.081400
     41 C36        -16.7830     6.6270    -0.3180 c3         1 YZY      -0.084400
     42 C37        -18.3100     6.6910    -0.2540 c3         1 YZY      -0.092100
     43 H1O         -0.3140    -0.3000    -0.8370 ho         1 YZY       0.395000
     44 H11          1.7900     0.8850    -0.5110 h1         1 YZY       0.035200
     45 H12          1.7900    -0.8850    -0.5110 h1         1 YZY       0.035200
     46 H21          3.0180     0.0890     1.4450 h1         1 YZY       0.089700
     47 H41          1.1660    -3.9770     2.2300 hc         1 YZY       0.073700
     48 H42          1.9560    -3.4420     3.7190 hc         1 YZY       0.073700
     49 H51          3.3500    -4.7210     1.3380 hc         1 YZY       0.058200
     50 H52          4.1400    -4.1870     2.8280 hc         1 YZY       0.058200
     51 H61          1.9680    -6.3070     2.6400 hc         1 YZY       0.041200
     52 H62          2.7580    -5.7720     4.1300 hc         1 YZY       0.041200
     53 H71          4.1510    -7.0510     1.7490 hc         1 YZY       0.044200
     54 H72          4.9420    -6.5160     3.2380 hc         1 YZY       0.044200
     55 H81          2.7710    -8.6370     3.0510 hc         1 YZY       0.041200
     56 H82          3.5620    -8.1020     4.5400 hc         1 YZY       0.041200
     57 H91          4.9540    -9.3820     2.1600 hc         1 YZY       0.041700
     58 H92          5.7440    -8.8470     3.6490 hc         1 YZY       0.041700
     59 H101         4.3640   -10.4330     4.9510 hc         1 YZY       0.040700
     60 H102         3.5740   -10.9680     3.4620 hc         1 YZY       0.040700
     61 H111         5.7570   -11.7120     2.5700 hc         1 YZY       0.041700
     62 H112         6.5470   -11.1770     4.0600 hc         1 YZY       0.041700
     63 H121         4.3760   -13.2970     3.8720 hc         1 YZY       0.040700
     64 H122         5.1660   -12.7630     5.3620 hc         1 YZY       0.040700
     65 H131         7.3490   -13.5070     4.4710 hc         1 YZY       0.041200
     66 H132         6.5590   -14.0420     2.9810 hc         1 YZY       0.041200
     67 H141         5.9690   -15.0940     5.7730 hc         1 YZY       0.040700
     68 H142         5.1780   -15.6280     4.2830 hc         1 YZY       0.040700
     69 H151         8.1520   -15.8380     4.8800 hc         1 YZY       0.040700
     70 H152         7.3610   -16.3720     3.3910 hc         1 YZY       0.040700
     71 H161         5.9810   -17.9580     4.6930 hc         1 YZY       0.040700
     72 H162         6.7720   -17.4230     6.1820 hc         1 YZY       0.040700
     73 H171         8.1640   -18.7030     3.8020 hc         1 YZY       0.039700
     74 H172         8.9550   -18.1690     5.2910 hc         1 YZY       0.039700
     75 H181         8.5160   -20.5930     5.3690 hc         1 YZY       0.032367
     76 H182         7.5530   -19.7490     6.5900 hc         1 YZY       0.032367
     77 H183         6.7950   -20.2980     5.0890 hc         1 YZY       0.032367
     78 H191         1.6180     1.1310     3.2420 h1         1 YZY       0.060200
     79 H192         1.6860     2.1090     1.7690 h1         1 YZY       0.060200
     80 H211        -2.6340     2.1740     1.6130 hc         1 YZY       0.072200
     81 H212        -2.7020     1.1970     3.0870 hc         1 YZY       0.072200
     82 H221        -2.5340     3.2490     4.4550 hc         1 YZY       0.059200
     83 H222        -2.4670     4.2260     2.9820 hc         1 YZY       0.059200
     84 H231        -4.6990     3.3880     2.3230 hc         1 YZY       0.040200
     85 H232        -4.7660     2.4110     3.7960 hc         1 YZY       0.040200
     86 H241        -4.5990     4.4630     5.1660 hc         1 YZY       0.047200
     87 H242        -4.5310     5.4410     3.6930 hc         1 YZY       0.047200
     88 H251        -6.7630     4.6040     3.0340 hc         1 YZY       0.040200
     89 H252        -6.8310     3.6260     4.5070 hc         1 YZY       0.040200
     90 H261        -6.6630     5.6780     5.8770 hc         1 YZY       0.058700
     91 H262        -6.5950     6.6560     4.4040 hc         1 YZY       0.058700
     92 H271        -8.8270     5.8170     3.7460 hc         1 YZY       0.033700
     93 H272        -8.8950     4.8400     5.2190 hc         1 YZY       0.033700
     94 H281        -9.6020     6.0160     5.4880 ha         1 YZY       0.330000
     95 H291        -9.3380     8.0000     4.0640 ha         1 YZY       0.329000
     96 H301       -10.1470     6.4380     3.3260 hc         1 YZY       0.033700
     97 H302       -10.0930     8.1510     2.8880 hc         1 YZY       0.033700
     98 H311       -12.2890     8.4970     3.9710 hc         1 YZY       0.058200
     99 H312       -12.3430     6.7840     4.4090 hc         1 YZY       0.058200
    100 H321       -12.2030     7.8820     1.5760 hc         1 YZY       0.040700
    101 H322       -12.2560     6.1690     2.0140 hc         1 YZY       0.040700
    102 H331       -14.4520     6.5130     3.0970 hc         1 YZY       0.045200
    103 H332       -14.3990     8.2270     2.6590 hc         1 YZY       0.045200
    104 H341       -14.3640     5.9000     0.7030 hc         1 YZY       0.040700
    105 H342       -14.3110     7.6130     0.2660 hc         1 YZY       0.040700
    106 H351       -16.5620     6.2440     1.7850 hc         1 YZY       0.042200
    107 H352       -16.5090     7.9570     1.3470 hc         1 YZY       0.042200
    108 H361       -16.4740     5.6310    -0.6090 hc         1 YZY       0.039700
    109 H362       -16.4220     7.3440    -1.0460 hc         1 YZY       0.039700
    110 H371       -18.7210     6.5100    -1.2400 hc         1 YZY       0.033033
    111 H372       -18.6170     7.6710     0.0910 hc         1 YZY       0.033033
    112 H373       -18.6740     5.9360     0.4330 hc         1 YZY       0.033033
@<TRIPOS>BOND
     1     1     2 1
     2     3     2 1
     3     2    44 1
     4     2    45 1
     5     4     3 1
     6     3    22 1
     7     3    46 1
     8     5     4 1
     9     7     5 1
    10     5     6 2
    11     8     7 1
    12     7    47 1
    13     7    48 1
    14     9     8 1
    15     8    49 1
    16     8    50 1
    17    10     9 1
    18     9    51 1
    19     9    52 1
    20    11    10 1
    21    10    53 1
    22    10    54 1
    23    12    11 1
    24    11    55 1
    25    11    56 1
    26    13    12 1
    27    12    57 1
    28    12    58 1
    29    14    13 1
    30    13    59 1
    31    13    60 1
    32    15    14 1
    33    14    61 1
    34    14    62 1
    35    16    15 1
    36    15    63 1
    37    15    64 1
    38    17    16 1
    39    16    65 1
    40    16    66 1
    41    18    17 1
    42    17    67 1
    43    17    68 1
    44    18    19 1
    45    18    69 1
    46    18    70 1
    47    20    19 1
    48    19    71 1
    49    19    72 1
    50    21    20 1
    51    20    73 1
    52    20    74 1
    53    21    75 1
    54    21    76 1
    55    21    77 1
    56    23    22 1
    57    22    78 1
    58    22    79 1
    59    23    24 1
    60    26    24 1
    61    24    25 2
    62    27    26 1
    63    26    80 1
    64    26    81 1
    65    28    27 1
    66    27    82 1
    67    27    83 1
    68    29    28 1
    69    28    84 1
    70    28    85 1
    71    30    29 1
    72    29    86 1
    73    29    87 1
    74    31    30 1
    75    30    88 1
    76    30    89 1
    77    32    31 1
    78    31    90 1
    79    31    91 1
    80    33    32 1
    81    32    92 1
    82    32    93 1
    83    34    33 2
    84    33    94 1
    85    34    35 1
    86    34    95 1
    87    36    35 1
    88    35    96 1
    89    35    97 1
    90    36    37 1
    91    36    98 1
    92    36    99 1
    93    37    38 1
    94    37   100 1
    95    37   101 1
    96    38    39 1
    97    38   102 1
    98    38   103 1
    99    39    40 1
   100    39   104 1
   101    39   105 1
   102    40    41 1
   103    40   106 1
   104    40   107 1
   105    41    42 1
   106    41   108 1
   107    41   109 1
   108    42   110 1
   109    42   111 1
   110    42   112 1
   111    43     1 1
@<TRIPOS>SUBSTRUCTURE
     1 YZY         1 TEMP              0 ****  ****    0 ROOT
