@<TRIPOS>MOLECULE
molecule
   27    27     1     0     0
SMALL
bcc


@<TRIPOS>ATOM
      1 C4           0.0000     0.0000     0.0000 ca         1 601      -0.018000
      2 C5           1.3980     0.0000     0.0000 ca         1 601      -0.253600
      3 C6           2.1380    -0.0000    -1.2760 c          1 601       0.690700
      4 N1           3.4850    -0.0010    -1.2740 ns         1 601      -0.530300
      5 C7           2.0940     0.0000     1.2130 ca         1 601      -0.018000
      6 C8           1.4010     0.0010     2.4020 ca         1 601      -0.214000
      7 N2           4.1710    -0.0010    -2.4550 nz         1 601      -0.532600
      8 O            1.5320    -0.0000    -2.3300 o          1 601      -0.574100
      9 C3          -0.6870     0.0010     1.1920 ca         1 601      -0.214000
     10 C2           0.0090    -0.0000     2.3990 ca         1 601       0.260600
     11 N           -0.6890     0.0010     3.6010 nh         1 601      -0.700000
     12 C1          -2.1540     0.0000     3.5990 c3         1 601       0.216100
     13 C            0.0420     0.0010     4.8710 c3         1 601       0.216100
     14 H1          -0.5420     0.0010    -0.9380 ha         1 601       0.134000
     15 H2           3.9840    -0.0020    -0.4060 hn         1 601       0.388500
     16 H3           3.1770     0.0000     1.2170 ha         1 601       0.134000
     17 H4           1.9400     0.0010     3.3420 ha         1 601       0.155500
     18 H5           3.9300    -0.8180    -2.9810 hn         1 601       0.466800
     19 H6           3.9300     0.8170    -2.9800 hn         1 601       0.466800
     20 H7          -1.7700     0.0010     1.1930 ha         1 601       0.155500
     21 H8          -2.5140    -0.8850     3.0880 h1         1 601       0.050533
     22 H9          -2.5160    -0.0000     4.6200 h1         1 601       0.050533
     23 H10         -2.5150     0.8840     3.0880 h1         1 601       0.050533
     24 H11          0.6640    -0.8840     4.9300 h1         1 601       0.050533
     25 H12         -0.6630     0.0010     5.6930 h1         1 601       0.050533
     26 H13          0.6650     0.8850     4.9290 h1         1 601       0.050533
     27 H23          5.1540     0.0060    -2.2700 hn         1 601       0.466800
@<TRIPOS>BOND
     1     7     4 1   
     2     8     3 2   
     3     4     3 1   
     4     3     2 1   
     5     5     2 ar  
     6     5     6 ar  
     7     2     1 ar  
     8     6    10 ar  
     9     1     9 ar  
    10    10     9 ar  
    11    10    11 1   
    12    12    11 1   
    13    11    13 1   
    14     1    14 1   
    15     4    15 1   
    16     5    16 1   
    17     6    17 1   
    18     7    18 1   
    19     7    19 1   
    20     9    20 1   
    21    12    21 1   
    22    12    22 1   
    23    12    23 1   
    24    13    24 1   
    25    13    25 1   
    26    13    26 1   
    27    27     7 1   
@<TRIPOS>SUBSTRUCTURE
     1 601         1 TEMP              0 ****  ****    0 ROOT
