@<TRIPOS>MOLECULE
602
   42    43     1     0     0
SMALL
bcc


@<TRIPOS>ATOM
      1 OAL          0.0000     0.0000     0.0000 o          1 602      -0.674867
      2 SAI          1.4220     0.0000     0.0000 s6         1 602       1.327300
      3 OAJ          1.8510     0.0000     1.4600 o          1 602      -0.674867
      4 OAK          2.1990    -0.9980    -0.6470 o          1 602      -0.674867
      5 OAH          1.8520     1.3330    -0.5950 os         1 602      -0.394000
      6 NAG          3.2870     1.4320    -0.8570 n7         1 602      -0.277700
      7 CAE          3.6280     2.7420    -1.4300 c3         1 602       0.104500
      8 CAF          3.2300     3.8480    -0.4490 c3         1 602      -0.063400
      9 CB           3.6160     5.2100    -1.0300 c3         1 602      -0.029400
     10 CAD          2.8720     2.9370    -2.7470 c3         1 602       0.050000
     11 N            3.1210     4.2990    -3.2390 n          1 602      -0.172800
     12 CAM          3.5840     4.5030    -4.4890 c          1 602       0.615900
     13 OAN          3.8900     3.5580    -5.1840 o          1 602      -0.654100
     14 CA           2.8580     5.4330    -2.3430 c3         1 602      -0.018300
     15 C            3.3330     6.7080    -2.9900 c          1 602       0.565100
     16 O            4.4200     6.7470    -3.5290 o          1 602      -0.653100
     17 NAQ          2.5520     7.8050    -2.9700 ns         1 602      -0.144500
     18 NAR          2.9930     8.9920    -3.5710 ns         1 602      -0.139500
     19 CAS          2.2120    10.0900    -3.5510 c          1 602       0.581100
     20 OAU          1.1260    10.0510    -3.0120 o          1 602      -0.654100
     21 CAT          2.6870    11.3650    -4.1980 cy         1 602      -0.161700
     22 CAV          1.7020    12.5390    -4.0510 cy         1 602       0.144800
     23 NAW          2.8930    13.3740    -3.7790 n6         1 602      -0.587200
     24 CAX          3.6480    12.1850    -3.3180 cy         1 602       0.144800
     25 H1           3.7920     1.3000    -0.0030 hn         1 602       0.259800
     26 H2           4.6940     2.7940    -1.6160 h1         1 602       0.032700
     27 H3           2.1600     3.8160    -0.2860 hc         1 602       0.036700
     28 H4           3.7480     3.6990     0.4910 hc         1 602       0.036700
     29 H5           4.6820     5.2310    -1.2210 hc         1 602       0.020700
     30 H6           3.3530     5.9900    -0.3260 hc         1 602       0.020700
     31 H7           1.8110     2.8010    -2.5780 h1         1 602       0.057200
     32 H8           3.2250     2.2180    -3.4760 h1         1 602       0.057200
     33 H9           3.6320     5.5080    -4.8900 h5         1 602      -0.003800
     34 H10          1.7960     5.4960    -2.1420 h1         1 602       0.033700
     35 H11          1.6500     7.7690    -2.5370 hn         1 602       0.223500
     36 H12          3.8840     9.0200    -4.0270 hn         1 602       0.217500
     37 H13          3.0470    11.2450    -5.2130 hc         1 602       0.066700
     38 H14          1.2050    12.7960    -4.9780 h1         1 602       0.033450
     39 H15          1.0470    12.4400    -3.1940 h1         1 602       0.033450
     40 H16          2.7090    13.9740    -2.9990 hn         1 602       0.248800
     41 H18          4.6710    12.1660    -3.6740 h1         1 602       0.033450
     42 H19          3.5290    11.9890    -2.2600 h1         1 602       0.033450
@<TRIPOS>BOND
     1     1     2 1   
     2     2     3 1   
     3     2     4 1   
     4     2     5 1   
     5     5     6 1   
     6     6     7 1   
     7     6    25 1   
     8     7     8 1   
     9     7    10 1   
    10     7    26 1   
    11     8     9 1   
    12     8    27 1   
    13     8    28 1   
    14     9    14 1   
    15     9    29 1   
    16     9    30 1   
    17    10    11 1   
    18    10    31 1   
    19    10    32 1   
    20    11    12 1   
    21    11    14 1   
    22    12    13 2   
    23    12    33 1   
    24    14    15 1   
    25    14    34 1   
    26    15    16 2   
    27    15    17 1   
    28    17    18 1   
    29    17    35 1   
    30    18    19 1   
    31    18    36 1   
    32    19    20 2   
    33    19    21 1   
    34    21    22 1   
    35    21    24 1   
    36    21    37 1   
    37    22    23 1   
    38    22    38 1   
    39    22    39 1   
    40    23    24 1   
    41    23    40 1   
    42    24    41 1   
    43    24    42 1   
@<TRIPOS>SUBSTRUCTURE
     1 602         1 TEMP              0 ****  ****    0 ROOT
