@<TRIPOS>MOLECULE
molecule
   62    65     1     0     0
SMALL
bcc


@<TRIPOS>ATOM
      1 C1          -5.9490    -0.2600    16.4560 cg         1 603       0.225800
      2 C2           0.0000     0.0000     0.0000 ca         1 603      -0.123000
      3 C3           1.3840     0.0000     0.0000 ca         1 603      -0.113000
      4 C4          -0.6960    -0.0000     1.1940 ca         1 603      -0.113000
      5 C5           4.2030    -0.0010     4.8890 ca         1 603      -0.149000
      6 C6          -3.5070    -0.1000    16.6030 ca         1 603      -0.111500
      7 C7          -4.5200    -2.1490    15.8250 ca         1 603      -0.111500
      8 C8           2.0760     0.0000     1.1950 ca         1 603      -0.124000
      9 C9          -0.0140     0.0010     2.3940 ca         1 603      -0.124000
     10 C10          3.5110    -0.0010     3.6920 ca         1 603      -0.104000
     11 C11          3.5180    -0.0000     6.0870 ca         1 603      -0.117000
     12 C12         -2.2590    -0.6640    16.4450 ca         1 603      -0.046500
     13 C13         -3.2640    -2.6990    15.6610 ca         1 603      -0.046500
     14 C14          1.4200     0.0010     4.8920 ca         1 603      -0.074000
     15 C15         -4.6500    -0.8400    16.2940 ca         1 603       0.017000
     16 C16          1.3780     0.0010     2.4000 cp         1 603      -0.069000
     17 C17          2.1170     0.0000     3.6880 cp         1 603      -0.027000
     18 C18          2.1210     0.0060     6.0960 ca         1 603      -0.142600
     19 C19         -2.1360    -1.9600    15.9750 ca         1 603      -0.215500
     20 C20          1.3870     0.0070     7.3800 c          1 603       0.680700
     21 C21          1.3410     0.0130     9.8160 c3         1 603       0.105700
     22 C22          2.2220     0.6220    10.9110 c3         1 603       0.090100
     23 C23          1.4810     0.5470    12.2490 c3         1 603       0.105100
     24 C24          1.1180    -0.9120    12.5400 c3         1 603       0.139100
     25 C25          0.9830    -1.4250    10.2020 c3         1 603       0.321900
     26 C26          0.3250    -0.9890    13.8470 c3         1 603      -0.186200
     27 N27         -6.9870     0.1820    16.5860 n1         1 603      -0.336800
     28 N28          2.0670     0.0120     8.5440 ns         1 603      -0.554900
     29 N29          0.0820    -2.3930    14.1880 n7         1 603      -0.561100
     30 O30          0.1720     0.0020     7.3860 o          1 603      -0.620100
     31 O31          0.4750    -2.1760    16.6240 o          1 603      -0.550800
     32 O32         -0.6560    -4.2000    15.6910 o          1 603      -0.550800
     33 O33          0.3250    -1.4270    11.4700 os         1 603      -0.475600
     34 O34          2.5000     1.9890    10.5940 oh         1 603      -0.576800
     35 O35          2.3230     1.0470    13.2900 oh         1 603      -0.561800
     36 O36          2.1760    -2.2070    10.2830 oh         1 603      -0.629800
     37 S37         -0.4190    -2.7990    15.7130 sy         1 603       1.258200
     38 H1          -0.5400    -0.0000    -0.9390 ha         1 603       0.132000
     39 H2           1.9250    -0.0000    -0.9390 ha         1 603       0.132000
     40 H3          -1.7800     0.0000     1.1880 ha         1 603       0.132000
     41 H4           5.2860    -0.0040     4.8870 ha         1 603       0.134000
     42 H6          -5.4580    -2.6890    15.8480 ha         1 603       0.153000
     43 H7           3.1240    -0.0130     1.4700 ha         1 603       0.141000
     44 H8          -0.3860     0.2920     3.3690 ha         1 603       0.141000
     45 H9           3.9820     0.0030     2.7160 ha         1 603       0.140000
     46 H10          4.3380    -0.0290     6.7940 ha         1 603       0.140000
     47 H11         -1.4370     0.0330    16.5480 ha         1 603       0.157000
     48 H12         -3.1590    -3.6720    15.1970 ha         1 603       0.157000
     49 H13          0.3840     0.0540     5.2030 ha         1 603       0.177000
     50 H14          0.4330     0.5960     9.7190 h1         1 603       0.113700
     51 H15          3.1480     0.0660    10.9790 h1         1 603       0.054700
     52 H16          0.5750     1.1390    12.1930 h1         1 603       0.081700
     53 H17          2.0260    -1.4970    12.6280 h1         1 603       0.078700
     54 H18          0.3210    -1.8440     9.4530 h2         1 603       0.091700
     55 H19         -0.4960    -0.2910    13.7350 h1         1 603       0.163200
     56 H20         -0.3420    -1.8420    13.8190 h1         1 603       0.163200
     57 H21          3.0410    -0.2130     8.5790 hn         1 603       0.325500
     58 H22         -0.6250    -2.6240    13.5180 hn         1 603       0.303800
     59 H23          3.1680     2.2580    11.2020 ho         1 603       0.401000
     60 H24          3.1910     1.1160    12.9290 ho         1 603       0.389000
     61 H25          1.9730    -3.1050    10.0800 ho         1 603       0.418000
     62 H5          -3.6590     0.9190    16.9380 ha         1 603       0.153000
@<TRIPOS>BOND
     1     2     3 ar
     2     2     4 ar
     3     3     8 ar
     4     4     9 ar
     5     8    16 ar
     6     9    16 ar
     7    16    17 1
     8    17    10 ar
     9    17    14 ar
    10    10     5 ar
    11    34    22 1
    12    14    18 ar
    13    35    23 1
    14     5    11 ar
    15    18    11 ar
    16    18    20 1
    17    22    23 1
    18    22    21 1
    19    23    24 1
    20    27     1 3
    21    28    20 1
    22    28    21 1
    23     7    13 ar
    24     7    15 ar
    25    20    30 2
    26    21    25 1
    27     1    15 1
    28    13    19 ar
    29    15     6 ar
    30    26    24 1
    31    26    29 1
    32    24    33 1
    33    25    33 1
    34    25    36 1
    35    19    37 1
    36    19    12 ar
    37    31    37 2
    38     6    12 ar
    39    29    37 1
    40    37    32 2
    41     2    38 1
    42     3    39 1
    43     4    40 1
    44     5    41 1
    45     6    62 1
    46     7    42 1
    47     8    43 1
    48     9    44 1
    49    10    45 1
    50    11    46 1
    51    12    47 1
    52    13    48 1
    53    14    49 1
    54    21    50 1
    55    22    51 1
    56    23    52 1
    57    24    53 1
    58    25    54 1
    59    26    55 1
    60    26    56 1
    61    28    57 1
    62    29    58 1
    63    34    59 1
    64    35    60 1
    65    36    61 1
@<TRIPOS>SUBSTRUCTURE
     1 603         1 TEMP              0 ****  ****    0 ROOT
