@<TRIPOS>MOLECULE
molecule
   46    48     1     0     0
SMALL
bcc


@<TRIPOS>ATOM
      1 C1           0.0000     0.0000     0.0000 ca         1 605      -0.114000
      2 C2           1.3850     0.0000     0.0000 ca         1 605       0.132900
      3 C3           2.0760     0.0000     1.1990 ca         1 605      -0.176300
      4 C4           1.3860     0.0010     2.3950 ca         1 605      -0.179000
      5 C5           0.0010     0.0020     2.3960 ca         1 605       0.148900
      6 C6          -0.6910     0.0000     1.1960 ca         1 605      -0.111000
      7 C10          3.5840    -0.0010     1.1990 c3         1 605      -0.041100
      8 C11          4.0940     1.4350     1.0730 c3         1 605       0.167800
      9 C14          5.5970     1.4250     0.9490 ca         1 605      -0.153300
     10 N15          3.7070     2.2000     2.2650 nz         1 605      -0.807600
     11 C17          6.1870     1.5590    -0.2940 ca         1 605      -0.103000
     12 C18          7.5620     1.5490    -0.4130 ca         1 605      -0.093500
     13 C19          8.3550     1.4060     0.7230 cp         1 605      -0.018000
     14 C20          7.7560     1.2720     1.9730 ca         1 605      -0.093500
     15 C21          6.3800     1.2870     2.0810 ca         1 605      -0.103000
     16 C26          9.8350     1.3960     0.6010 cp         1 605      -0.043000
     17 C27         10.4330     1.5290    -0.6500 ca         1 605      -0.041000
     18 C28         11.8100     1.5190    -0.7660 ca         1 605      -0.099000
     19 C29         12.6020     1.3770     0.3550 ca         1 605      -0.099000
     20 C30         12.0140     1.2430     1.6150 ca         1 605      -0.206600
     21 C31         10.6260     1.2580     1.7370 ca         1 605      -0.023000
     22 F34         -0.6750     0.0030     3.5650 f          1 605      -0.108900
     23 F35          2.0600    -0.0020    -1.1700 f          1 605      -0.127900
     24 C40         12.8630     1.0910     2.8160 c          1 605       0.512700
     25 N41         14.2050     1.0820     2.6960 nz         1 605      -0.678400
     26 O42         12.3500     0.9740     3.9120 o          1 605      -0.415100
     27 H1          -0.5410    -0.0010    -0.9380 ha         1 605       0.181000
     28 H4           1.9270     0.0020     3.3340 ha         1 605       0.138000
     29 H6          -1.7750     0.0010     1.1960 ha         1 605       0.183000
     30 H10          3.9440    -0.4320     2.1250 hc         1 605       0.097700
     31 H10A         3.9440    -0.5870     0.3630 hc         1 605       0.097700
     32 H11          3.6630     1.8960     0.1920 hx         1 605       0.126700
     33 HN15         3.8160     1.6280     3.0780 hn         1 605       0.457800
     34 HN1A         2.7510     2.4850     2.1820 hn         1 605       0.457800
     35 H17          5.5690     1.6700    -1.1770 ha         1 605       0.142500
     36 H18          8.0230     1.6540    -1.3880 ha         1 605       0.156000
     37 H20          8.3680     1.1630     2.8600 ha         1 605       0.156000
     38 H21          5.9120     1.1830     3.0520 ha         1 605       0.142500
     39 H27          9.8180     1.6400    -1.5350 ha         1 605       0.166000
     40 H28         12.2700     1.6230    -1.7420 ha         1 605       0.175000
     41 H29         13.6810     1.3680     0.2580 ha         1 605       0.122000
     42 H31         10.1650     1.1540     2.7120 ha         1 605       0.167000
     43 HN41        14.5100     1.9450     2.2920 hn         1 605       0.483133
     44 HN4A        14.6200     0.9710     3.6000 hn         1 605       0.483133
     45 H153         4.2940     3.0070     2.3490 hn         1 605       0.457800
     46 H413        14.4800     0.3370     2.0870 hn         1 605       0.483133
@<TRIPOS>BOND
     1     1     2 ar  
     2     1     6 ar  
     3     2     3 ar  
     4     2    23 1   
     5     3     4 ar  
     6     3     7 1   
     7     4     5 ar  
     8     5     6 ar  
     9     5    22 1   
    10     7     8 1   
    11     8     9 1   
    12     8    10 1   
    13     9    11 ar  
    14     9    15 ar  
    15    11    12 ar  
    16    12    13 ar  
    17    13    14 ar  
    18    13    16 1   
    19    14    15 ar  
    20    16    17 ar  
    21    16    21 ar  
    22    17    18 ar  
    23    18    19 ar  
    24    19    20 ar  
    25    20    21 ar  
    26    20    24 1   
    27    24    25 1   
    28    24    26 2   
    29     1    27 1   
    30     4    28 1   
    31     6    29 1   
    32     7    30 1   
    33     7    31 1   
    34     8    32 1   
    35    10    33 1   
    36    10    34 1   
    37    11    35 1   
    38    12    36 1   
    39    14    37 1   
    40    15    38 1   
    41    17    39 1   
    42    18    40 1   
    43    19    41 1   
    44    21    42 1   
    45    25    43 1   
    46    25    44 1   
    47    45    10 1   
    48    46    25 1   
@<TRIPOS>SUBSTRUCTURE
     1 605         1 TEMP              0 ****  ****    0 ROOT
