@<TRIPOS>MOLECULE
605
   46    48     1     0     0
SMALL
bcc


@<TRIPOS>ATOM
      1 C1           0.0000     0.0000     0.0000 ca         1 605      -0.074000
      2 C2           1.3850     0.0000     0.0000 ca         1 605       0.115900
      3 C3           2.0760     0.0000     1.1990 ca         1 605      -0.190300
      4 C4           1.3860     0.0010     2.3950 ca         1 605      -0.145000
      5 C5           0.0010     0.0020     2.3960 ca         1 605       0.130900
      6 C6          -0.6910     0.0000     1.1960 ca         1 605      -0.067000
      7 C10          3.5840    -0.0010     1.1990 c3         1 605       0.038900
      8 C11          4.0940     1.4350     1.0730 c3         1 605       0.006800
      9 C14          5.5970     1.4250     0.9490 ca         1 605      -0.166300
     10 N15          3.7070     2.2000     2.2650 nz         1 605       0.057400
     11 C17          6.1870     1.5590    -0.2940 ca         1 605      -0.069000
     12 C18          7.5620     1.5490    -0.4130 ca         1 605      -0.065000
     13 C19          8.3550     1.4060     0.7230 cp         1 605      -0.014000
     14 C20          7.7560     1.2720     1.9730 ca         1 605      -0.065000
     15 C21          6.3800     1.2870     2.0810 ca         1 605      -0.069000
     16 C26          9.8350     1.3960     0.6010 cp         1 605      -0.045000
     17 C27         10.4330     1.5290    -0.6500 ca         1 605      -0.008000
     18 C28         11.8100     1.5190    -0.7660 ca         1 605      -0.062000
     19 C29         12.6020     1.3770     0.3550 ca         1 605      -0.068000
     20 C30         12.0140     1.2430     1.6150 ca         1 605      -0.229600
     21 C31         10.6260     1.2580     1.7370 ca         1 605       0.014000
     22 F34         -0.6750     0.0030     3.5650 f          1 605      -0.102900
     23 F35          2.0600    -0.0020    -1.1700 f          1 605      -0.114900
     24 C40         12.8630     1.0910     2.8160 c          1 605       0.361700
     25 N41         14.2050     1.0820     2.6960 nz         1 605       0.201600
     26 O42         12.3500     0.9740     3.9120 o          1 605      -0.426100
     27 H1          -0.5410    -0.0010    -0.9380 ha         1 605       0.145000
     28 H4           1.9270     0.0020     3.3340 ha         1 605       0.115000
     29 H6          -1.7750     0.0010     1.1960 ha         1 605       0.147000
     30 H10          3.9440    -0.4320     2.1250 hc         1 605       0.061200
     31 H10A         3.9440    -0.5870     0.3630 hc         1 605       0.061200
     32 H11          3.6630     1.8960     0.1920 hx         1 605       0.099700
     33 HN15         3.8160     1.6280     3.0780 hn         1 605       0.230800
     34 HN1A         2.7510     2.4850     2.1820 hn         1 605       0.230800
     35 H17          5.5690     1.6700    -1.1770 ha         1 605       0.113000
     36 H18          8.0230     1.6540    -1.3880 ha         1 605       0.128000
     37 H20          8.3680     1.1630     2.8600 ha         1 605       0.128000
     38 H21          5.9120     1.1830     3.0520 ha         1 605       0.113000
     39 H27          9.8180     1.6400    -1.5350 ha         1 605       0.132000
     40 H28         12.2700     1.6230    -1.7420 ha         1 605       0.137000
     41 H29         13.6810     1.3680     0.2580 ha         1 605       0.090000
     42 H31         10.1650     1.1540     2.7120 ha         1 605       0.137000
     43 HN41        14.5100     1.9450     2.2920 hn         1 605       0.251467
     44 HN4A        14.6200     0.9710     3.6000 hn         1 605       0.251467
     45 H153         4.2940     3.0070     2.3490 hn         1 605       0.230800
     46 H413        14.4800     0.3370     2.0870 hn         1 605       0.251467
@<TRIPOS>BOND
     1     1     2 ar  
     2     1     6 ar  
     3     1    27 1   
     4     2     3 ar  
     5     2    23 1   
     6     3     4 ar  
     7     3     7 1   
     8     4     5 ar  
     9     4    28 1   
    10     5     6 ar  
    11     5    22 1   
    12     6    29 1   
    13     7     8 1   
    14     7    30 1   
    15     7    31 1   
    16     8     9 1   
    17     8    10 1   
    18     8    32 1   
    19     9    11 ar  
    20     9    15 ar  
    21    10    33 1   
    22    10    34 1   
    23    10    45 1   
    24    11    12 ar  
    25    11    35 1   
    26    12    13 ar  
    27    12    36 1   
    28    13    14 ar  
    29    13    16 1   
    30    14    15 ar  
    31    14    37 1   
    32    15    38 1   
    33    16    17 ar  
    34    16    21 ar  
    35    17    18 ar  
    36    17    39 1   
    37    18    19 ar  
    38    18    40 1   
    39    19    20 ar  
    40    19    41 1   
    41    20    21 ar  
    42    20    24 1   
    43    21    42 1   
    44    24    25 1   
    45    24    26 2   
    46    25    43 1   
    47    25    44 1   
    48    25    46 1   
@<TRIPOS>SUBSTRUCTURE
     1 605         1 TEMP              0 ****  ****    0 ROOT
