@<TRIPOS>MOLECULE
molecule
   50    51     1     0     0
SMALL
bcc


@<TRIPOS>ATOM
      1 C29          0.0000     0.0000     0.0000 ca         1 606      -0.125000
      2 C30          1.3820     0.0000     0.0000 ca         1 606      -0.133000
      3 C31          2.0730     0.0000     1.1980 ca         1 606      -0.152000
      4 C32          1.3810     0.0020     2.3950 ca         1 606      -0.133000
      5 C33         -0.0010     0.0030     2.3940 ca         1 606      -0.125000
      6 C28         -0.6910     0.0010     1.1970 ca         1 606      -0.054300
      7 C27         -2.1990     0.0020     1.1970 c3         1 606      -0.044100
      8 C26         -2.7100    -1.4400     1.1980 c3         1 606      -0.035400
      9 C25         -4.2400    -1.4390     1.1970 c3         1 606      -0.270600
     10 P24         -4.8490    -3.1580     1.1980 p5         1 606       0.988400
     11 O34         -4.4230    -3.8780    -0.1770 o          1 606      -0.788000
     12 O35         -4.2600    -3.8890     2.3410 o          1 606      -0.788000
     13 C23         -6.6650    -3.1580     1.3470 c3         1 606      -0.238600
     14 C1          -7.1660    -4.5980     1.4730 c3         1 606      -0.119400
     15 C2          -7.0960    -5.2750     0.1280 c          1 606       0.888600
     16 O14         -7.4880    -6.5510    -0.0030 o          1 606      -0.806300
     17 O13         -6.6890    -4.6660    -0.8330 o          1 606      -0.806300
     18 C3          -8.5920    -4.5930     1.9600 ca         1 606       0.077700
     19 C8          -8.9180    -5.2210     3.1470 ca         1 606      -0.119000
     20 C4          -9.5720    -3.9570     1.2200 ca         1 606      -0.093000
     21 C5         -10.8820    -3.9510     1.6640 ca         1 606      -0.107000
     22 C6         -11.2160    -4.5800     2.8470 ca         1 606      -0.279000
     23 C7         -10.2330    -5.2150     3.5950 ca         1 606       0.036600
     24 N9         -10.5660    -5.8490     4.7960 nu         1 606      -0.671600
     25 C10        -11.7490    -6.5450     4.9020 c2         1 606       0.714100
     26 N12        -12.5450    -6.7200     3.7940 nz         1 606      -0.807600
     27 N11        -12.1150    -7.0390     6.0510 n2         1 606      -0.857100
     28 H29         -0.5420    -0.0010    -0.9380 ha         1 606       0.132500
     29 H30          1.9240    -0.0010    -0.9380 ha         1 606       0.115000
     30 H31          3.1570    -0.0000     1.1980 ha         1 606       0.111000
     31 H32          1.9230     0.0020     3.3330 ha         1 606       0.115000
     32 H33         -0.5430     0.0040     3.3320 ha         1 606       0.132500
     33 H271        -2.5600     0.5130     0.3130 hc         1 606       0.035200
     34 H272        -2.5600     0.5140     2.0820 hc         1 606       0.035200
     35 H261        -2.3490    -1.9520     0.3140 hc         1 606       0.062700
     36 H262        -2.3500    -1.9500     2.0830 hc         1 606       0.062700
     37 H251        -4.6010    -0.9290     0.3120 hc         1 606       0.030200
     38 H252        -4.6020    -0.9270     2.0810 hc         1 606       0.030200
     39 H231        -6.9550    -2.5960     2.2270 hc         1 606       0.030200
     40 H232        -7.1000    -2.7000     0.4670 hc         1 606       0.030200
     41 H1          -6.5460    -5.1360     2.1800 hc         1 606       0.087700
     42 H8          -8.1500    -5.7150     3.7280 ha         1 606       0.159000
     43 H4          -9.3140    -3.4630     0.2920 ha         1 606       0.177000
     44 H5         -11.6480    -3.4540     1.0810 ha         1 606       0.121000
     45 H6         -12.2420    -4.5740     3.1930 ha         1 606       0.059000
     46 HN9         -9.9680    -5.7560     5.5930 hn         1 606       0.504800
     47 H121       -13.1600    -5.9370     3.6960 hn         1 606       0.467800
     48 H122       -11.9700    -6.7980     2.9780 hn         1 606       0.467800
     49 HN11       -12.9740    -7.5450     6.1290 hn         1 606       0.414400
     50 H123       -13.0860    -7.5560     3.9010 hn         1 606       0.467800
@<TRIPOS>BOND
     1     1     6 ar
     2     1     2 ar
     3     1    28 1
     4     2     3 ar
     5     2    29 1
     6     3     4 ar
     7     3    30 1
     8     4     5 ar
     9     4    31 1
    10     5     6 ar
    11     5    32 1
    12     6     7 1
    13     7     8 1
    14     7    33 1
    15     7    34 1
    16     8     9 1
    17     8    35 1
    18     8    36 1
    19     9    10 1
    20     9    37 1
    21     9    38 1
    22    10    11 1
    23    10    13 1
    24    10    12 1
    25    13    14 1
    26    13    39 1
    27    13    40 1
    28    14    18 1
    29    14    15 1
    30    14    41 1
    31    15    16 1
    32    15    17 1
    33    18    19 ar
    34    18    20 ar
    35    19    23 ar
    36    19    42 1
    37    20    21 ar
    38    20    43 1
    39    21    22 ar
    40    21    44 1
    41    22    23 ar
    42    22    45 1
    43    23    24 1
    44    24    25 1
    45    24    46 1
    46    25    26 1
    47    25    27 2
    48    26    47 1
    49    26    48 1
    50    27    49 1
    51    50    26 1
@<TRIPOS>SUBSTRUCTURE
     1 606         1 TEMP              0 ****  ****    0 ROOT
