@<TRIPOS>MOLECULE
molecule
   54    57     1     0     0
SMALL
bcc


@<TRIPOS>ATOM
      1 C1           0.0000     0.0000     0.0000 ca         1 607       0.039100
      2 C2           1.3990     0.0000     0.0000 ca         1 607      -0.157000
      3 C3           2.0930     0.0000     1.1770 ca         1 607      -0.113000
      4 C4           1.4110     0.0010     2.3880 ca         1 607      -0.109000
      5 C5           0.0030     0.0010     2.4070 ca         1 607      -0.010000
      6 C6          -0.7000     0.0060     1.2030 ca         1 607      -0.246000
      7 C7          -0.7370    -0.0000    -1.2800 ce         1 607      -0.216200
      8 N1          -2.0700     0.0000    -1.2830 nz         1 607      -0.583600
      9 N2          -0.0700    -0.0000    -2.4340 nv         1 607      -0.603100
     10 N3           1.8140     0.0020     3.7070 na         1 607      -0.220600
     11 N4          -0.3790     0.0010     3.7090 nc         1 607      -0.324600
     12 C8           0.6820     0.0020     4.4780 cc         1 607       0.194500
     13 C1'          0.6600     0.0020     5.9550 cd         1 607      -0.079000
     14 C2'         -0.2790     0.7740     6.6420 cd         1 607      -0.019000
     15 C3'         -0.3000     0.7750     8.0220 cc         1 607      -0.020200
     16 CVX         -1.3170     1.6120     8.7540 c3         1 607      -0.085500
     17 CWX         -2.7060     1.1700     8.3660 c          1 607       0.900600
     18 OXX         -2.8540     0.2600     7.5680 o          1 607      -0.582800
     19 OYX         -3.6790     1.7230     8.8500 o          1 607      -0.582800
     20 C6X         -1.1290     3.0850     8.3840 c3         1 607      -0.164400
     21 C7X         -2.0630     3.9330     9.2080 c          1 607       0.875600
     22 O8X         -2.8440     3.3850    10.0530 o          1 607      -0.734800
     23 O9X         -2.0720     5.2000     9.0600 o          1 607      -0.734800
     24 C4'          0.6050     0.0130     8.7360 cc         1 607      -0.092000
     25 C5'          1.5490    -0.7630     8.0680 cd         1 607      -0.061200
     26 C6'          1.5760    -0.7760     6.6710 c          1 607       0.482100
     27 O6'          2.4910    -1.5300     6.0130 o          1 607      -0.612100
     28 C1B          2.5200    -1.5790     8.8380 ca         1 607      -0.051800
     29 C2B          3.8880    -1.2920     8.7710 ca         1 607       0.202600
     30 C3B          4.7870    -2.0580     9.5000 ca         1 607      -0.160000
     31 C4B          4.3330    -3.1050    10.2780 ca         1 607      -0.123000
     32 C5B          2.9800    -3.3940    10.3410 ca         1 607      -0.149000
     33 C6B          2.0740    -2.6370     9.6250 ca         1 607      -0.100000
     34 N2B          4.3450    -0.2340     7.9850 nv         1 607      -0.979200
     35 HC2          2.1800     0.0000    -0.7510 ha         1 607       0.119000
     36 HC3          3.1760     0.0060     1.1830 ha         1 607       0.109000
     37 HC6         -1.7360    -0.0080     1.5200 ha         1 607       0.137000
     38 HH11        -2.4050    -0.8180    -0.8140 hn         1 607       0.376467
     39 HH12        -2.4020     0.0030    -2.2270 hn         1 607       0.376467
     40 HH21        -0.5690    -0.0000    -3.3010 hn         1 607       0.252700
     41 HH22         0.9310    -0.0000    -2.4330 hn         1 607       0.252700
     42 HN3          2.7580     0.0020     4.0390 hn         1 607       0.307700
     43 HC2'        -0.9920     1.3750     6.0900 ha         1 607       0.177000
     44 H31B        -1.1850     1.4880     9.8220 hc         1 607       0.098700
     45 H42A        -0.1050     3.3780     8.5820 hc         1 607       0.063200
     46 H42B        -1.3480     3.2240     7.3320 hc         1 607       0.063200
     47 HC4'         0.5820     0.0220     9.8190 ha         1 607       0.145000
     48 H3B          5.8470    -1.8390     9.4530 ha         1 607       0.127000
     49 H4B          5.0380    -3.7020    10.8430 ha         1 607       0.119000
     50 H5B          2.6320    -4.2170    10.9530 ha         1 607       0.123000
     51 H6B          1.0160    -2.8660     9.6770 ha         1 607       0.138000
     52 HN2A         4.8260    -0.4190     7.1270 hn         1 607       0.429300
     53 HN2B         4.2410     0.7080     8.3060 hn         1 607       0.429300
     54 H13         -2.4040     0.8220    -0.8200 hn         1 607       0.376467
@<TRIPOS>BOND
     1     1     2 ar
     2     1     6 ar
     3     1     7 1
     4     2     3 ar
     5     2    35 1
     6     3     4 ar
     7     3    36 1
     8     4     5 ar
     9     4    10 2
    10     5     6 ar
    11     5    11 2
    12     6    37 1
    13     7     8 1
    14     7     9 2
    15     8    38 1
    16     8    39 1
    17     9    40 1
    18     9    41 1
    19    10    12 1
    20    10    42 1
    21    11    12 1
    22    12    13 2
    23    13    14 1
    24    13    26 1
    25    14    15 2
    26    14    43 1
    27    15    16 1
    28    15    24 1
    29    16    17 1
    30    16    20 1
    31    16    44 1
    32    17    18 1
    33    17    19 1
    34    20    21 1
    35    20    45 1
    36    20    46 1
    37    21    22 1
    38    21    23 1
    39    24    25 2
    40    24    47 1
    41    25    26 1
    42    25    28 1
    43    26    27 2
    44    28    29 ar
    45    28    33 ar
    46    29    30 ar
    47    29    34 1
    48    30    31 ar
    49    30    48 1
    50    31    32 ar
    51    31    49 1
    52    32    33 ar
    53    32    50 1
    54    33    51 1
    55    34    52 1
    56    34    53 1
    57    54     8 1
@<TRIPOS>SUBSTRUCTURE
     1 607         1 TEMP              0 ****  ****    0 ROOT
