@<TRIPOS>MOLECULE
molecule
   50    53     1     0     0
SMALL
bcc


@<TRIPOS>ATOM
      1 C10          0.0000     0.0000     0.0000 ca         1 608      -0.129000
      2 C11          1.3950     0.0000     0.0000 ca         1 608      -0.156000
      3 C12          2.0920     0.0000     1.2090 ca         1 608       0.054600
      4 C13          1.3950    -0.0010     2.4160 ca         1 608      -0.156000
      5 C14         -0.0010    -0.0010     2.4160 ca         1 608      -0.129000
      6 C15         -0.6980    -0.0010     1.2070 ca         1 608       0.087100
      7 C16          4.4610    -6.3650    -1.2680 ca         1 608       0.393700
      8 N4           3.7090    -6.9350    -0.3010 nb         1 608      -0.648000
      9 C17          5.3490    -5.3250    -1.0490 ca         1 608      -0.229300
     10 C18          5.4650    -4.8450     0.2460 ca         1 608      -0.080300
     11 C8           4.7140    -5.3970     1.2700 ca         1 608      -0.229300
     12 C9           3.8550    -6.4340     0.9470 ca         1 608       0.393700
     13 C19          5.7980    -0.0390     0.4470 ca         1 608      -0.332900
     14 C20          6.4720     1.1540     0.6250 ca         1 608      -0.019000
     15 C21          7.8250     1.1250     0.9480 ca         1 608      -0.307300
     16 C22          8.4340    -0.1130     1.0770 ca         1 608       0.458200
     17 N3           7.7960    -1.2920     0.9080 nb         1 608      -0.720000
     18 C23          6.4820    -1.2240     0.5940 ca         1 608       0.715200
     19 N1           5.7840    -2.4440     0.4080 nu         1 608      -0.915900
     20 C7           6.4130    -3.7180     0.5400 c3         1 608       0.283100
     21 C24          4.3650     0.0030     0.1060 c          1 608       0.691700
     22 N2           3.4880     0.0010     1.2090 ns         1 608      -0.484100
     23 O1           3.9930     0.0030    -1.0660 o          1 608      -0.560100
     24 O2          -2.0590    -0.0010     1.2070 os         1 608      -0.258200
     25 C1          -2.9030    -3.0500    -0.6310 ca         1 608      -0.109500
     26 C2          -3.9830    -2.6030    -1.3920 ca         1 608      -0.146000
     27 C3          -4.4170    -1.2820    -1.2790 ca         1 608      -0.109500
     28 C4          -3.7700    -0.4080    -0.4060 ca         1 608      -0.154000
     29 C5          -2.7000    -0.8700     0.3400 ca         1 608       0.113100
     30 C6          -2.2560    -2.1750     0.2420 ca         1 608      -0.154000
     31 H10         -0.5410     0.0000    -0.9380 ha         1 608       0.148000
     32 H11          1.9370     0.0000    -0.9380 ha         1 608       0.154500
     33 H13          1.9360    -0.0010     3.3540 ha         1 608       0.154500
     34 H14         -0.5430    -0.0010     3.3540 ha         1 608       0.148000
     35 H17          5.9300    -4.9020    -1.8600 ha         1 608       0.149500
     36 H8           4.7960    -5.0310     2.2860 ha         1 608       0.149500
     37 H9           3.2640    -6.8720     1.7430 h4         1 608       0.020100
     38 H20          5.9550     2.0990     0.5140 ha         1 608       0.146000
     39 H21          8.3840     2.0410     1.0950 ha         1 608       0.150000
     40 H22          9.4870    -0.1370     1.3290 h4         1 608       0.022100
     41 HN1          4.8110    -2.4100     0.1750 hn         1 608       0.449800
     42 H71          7.2470    -3.7710    -0.1490 h1         1 608       0.053700
     43 H72          6.7840    -3.8240     1.5520 h1         1 608       0.053700
     44 HN2          3.9220     0.0000     2.1110 hn         1 608       0.317500
     45 H1          -2.5660    -4.0760    -0.7180 ha         1 608       0.135000
     46 H2          -4.4860    -3.2830    -2.0700 ha         1 608       0.133000
     47 H3          -5.2560    -0.9360    -1.8700 ha         1 608       0.135000
     48 H4          -4.1020     0.6190    -0.3130 ha         1 608       0.146500
     49 H6          -1.4170    -2.5150     0.8370 ha         1 608       0.146500
     50 H16          4.3640    -6.7460    -2.2780 h4         1 608       0.020100
@<TRIPOS>BOND
     1    12     8 ar  
     2    12    11 ar  
     3     8     7 ar  
     4    11    10 ar  
     5     7     9 ar  
     6    10     9 ar  
     7    10    20 1   
     8    16    17 ar  
     9    16    15 ar  
    10    17    18 ar  
    11    20    19 1   
    12    15    14 ar  
    13    18    19 1   
    14    18    13 ar  
    15    14    13 ar  
    16    13    21 1   
    17    21    23 2   
    18    21    22 1   
    19    22     3 1   
    20     3     2 ar  
    21     3     4 ar  
    22     2     1 ar  
    23     4     5 ar  
    24     1     6 ar  
    25     5     6 ar  
    26     6    24 1   
    27    24    29 1   
    28    29    28 ar  
    29    29    30 ar  
    30    28    27 ar  
    31    30    25 ar  
    32    27    26 ar  
    33    25    26 ar  
    34     1    31 1   
    35     2    32 1   
    36     4    33 1   
    37     5    34 1   
    38     7    50 1   
    39     9    35 1   
    40    11    36 1   
    41    12    37 1   
    42    14    38 1   
    43    15    39 1   
    44    16    40 1   
    45    19    41 1   
    46    20    42 1   
    47    20    43 1   
    48    22    44 1   
    49    25    45 1   
    50    26    46 1   
    51    27    47 1   
    52    28    48 1   
    53    30    49 1   
@<TRIPOS>SUBSTRUCTURE
     1 608         1 TEMP              0 ****  ****    0 ROOT
