@<TRIPOS>MOLECULE
608
   50    53     1     0     0
SMALL
bcc


@<TRIPOS>ATOM
      1 C10          0.0000     0.0000     0.0000 ca         1 608      -0.108500
      2 C11          1.3950     0.0000     0.0000 ca         1 608      -0.127000
      3 C12          2.0920     0.0000     1.2090 ca         1 608      -0.094400
      4 C13          1.3950    -0.0010     2.4160 ca         1 608      -0.127000
      5 C14         -0.0010    -0.0010     2.4160 ca         1 608      -0.108500
      6 C15         -0.6980    -0.0010     1.2070 ca         1 608       0.096100
      7 C16          4.4610    -6.3650    -1.2680 ca         1 608       0.400700
      8 N4           3.7090    -6.9350    -0.3010 nb         1 608      -0.577000
      9 C17          5.3490    -5.3250    -1.0490 ca         1 608      -0.198800
     10 C18          5.4650    -4.8450     0.2460 ca         1 608      -0.086300
     11 C8           4.7140    -5.3970     1.2700 ca         1 608      -0.198800
     12 C9           3.8550    -6.4340     0.9470 ca         1 608       0.400700
     13 C19          5.7980    -0.0390     0.4470 ca         1 608      -0.356900
     14 C20          6.4720     1.1540     0.6250 ca         1 608       0.021000
     15 C21          7.8250     1.1250     0.9480 ca         1 608      -0.286300
     16 C22          8.4340    -0.1130     1.0770 ca         1 608       0.469200
     17 N3           7.7960    -1.2920     0.9080 nb         1 608      -0.657000
     18 C23          6.4820    -1.2240     0.5940 ca         1 608       0.558200
     19 N1           5.7840    -2.4440     0.4080 nu         1 608      -0.517900
     20 C7           6.4130    -3.7180     0.5400 c3         1 608       0.219100
     21 C24          4.3650     0.0030     0.1060 c          1 608       0.620700
     22 N2           3.4880     0.0010     1.2090 ns         1 608      -0.055100
     23 O1           3.9930     0.0030    -1.0660 o          1 608      -0.598100
     24 O2          -2.0590    -0.0010     1.2070 os         1 608      -0.230200
     25 C1          -2.9030    -3.0500    -0.6310 ca         1 608      -0.076000
     26 C2          -3.9830    -2.6030    -1.3920 ca         1 608      -0.122000
     27 C3          -4.4170    -1.2820    -1.2790 ca         1 608      -0.076000
     28 C4          -3.7700    -0.4080    -0.4060 ca         1 608      -0.136500
     29 C5          -2.7000    -0.8700     0.3400 ca         1 608       0.117100
     30 C6          -2.2560    -2.1750     0.2420 ca         1 608      -0.136500
     31 H10         -0.5410     0.0000    -0.9380 ha         1 608       0.119000
     32 H11          1.9370     0.0000    -0.9380 ha         1 608       0.131500
     33 H13          1.9360    -0.0010     3.3540 ha         1 608       0.131500
     34 H14         -0.5430    -0.0010     3.3540 ha         1 608       0.119000
     35 H17          5.9300    -4.9020    -1.8600 ha         1 608       0.124000
     36 H8           4.7960    -5.0310     2.2860 ha         1 608       0.124000
     37 H9           3.2640    -6.8720     1.7430 h4         1 608      -0.024400
     38 H20          5.9550     2.0990     0.5140 ha         1 608       0.109000
     39 H21          8.3840     2.0410     1.0950 ha         1 608       0.124000
     40 H22          9.4870    -0.1370     1.3290 h4         1 608      -0.027900
     41 HN1          4.8110    -2.4100     0.1750 hn         1 608       0.297800
     42 H71          7.2470    -3.7710    -0.1490 h1         1 608       0.025700
     43 H72          6.7840    -3.8240     1.5520 h1         1 608       0.025700
     44 HN2          3.9220     0.0000     2.1110 hn         1 608       0.164500
     45 H1          -2.5660    -4.0760    -0.7180 ha         1 608       0.104000
     46 H2          -4.4860    -3.2830    -2.0700 ha         1 608       0.106000
     47 H3          -5.2560    -0.9360    -1.8700 ha         1 608       0.104000
     48 H4          -4.1020     0.6190    -0.3130 ha         1 608       0.119500
     49 H6          -1.4170    -2.5150     0.8370 ha         1 608       0.119500
     50 H16          4.3640    -6.7460    -2.2780 h4         1 608      -0.024400
@<TRIPOS>BOND
     1     1     2 ar  
     2     1     6 ar  
     3     1    31 1   
     4     2     3 ar  
     5     2    32 1   
     6     3     4 ar  
     7     3    22 1   
     8     4     5 ar  
     9     4    33 1   
    10     5     6 ar  
    11     5    34 1   
    12     6    24 1   
    13     7     8 ar  
    14     7     9 ar  
    15     7    50 1   
    16     8    12 ar  
    17     9    10 ar  
    18     9    35 1   
    19    10    11 ar  
    20    10    20 1   
    21    11    12 ar  
    22    11    36 1   
    23    12    37 1   
    24    13    14 ar  
    25    13    18 ar  
    26    13    21 1   
    27    14    15 ar  
    28    14    38 1   
    29    15    16 ar  
    30    15    39 1   
    31    16    17 ar  
    32    16    40 1   
    33    17    18 ar  
    34    18    19 1   
    35    19    20 1   
    36    19    41 1   
    37    20    42 1   
    38    20    43 1   
    39    21    22 1   
    40    21    23 2   
    41    22    44 1   
    42    24    29 1   
    43    25    26 ar  
    44    25    30 ar  
    45    25    45 1   
    46    26    27 ar  
    47    26    46 1   
    48    27    28 ar  
    49    27    47 1   
    50    28    29 ar  
    51    28    48 1   
    52    29    30 ar  
    53    30    49 1   
@<TRIPOS>SUBSTRUCTURE
     1 608         1 TEMP              0 ****  ****    0 ROOT
