@<TRIPOS>MOLECULE
molecule
   33    37     1     0     0
SMALL
bcc


@<TRIPOS>ATOM
      1 CAW          0.0000     0.0000     0.0000 ca         1 609       0.014000
      2 CAR          1.4090     0.0000     0.0000 ca         1 609      -0.058000
      3 CAI          2.0960     0.0000     1.2220 ca         1 609      -0.022000
      4 CAF          1.3990     0.0010     2.3980 ca         1 609      -0.206000
      5 CAJ          0.0090     0.0010     2.4150 ca         1 609      -0.026000
      6 CAS         -0.7050    -0.0050     1.2260 ca         1 609      -0.200600
      7 CAP         -2.1740    -0.0040     1.2010 c          1 609       0.738100
      8 OAB         -2.7940    -0.0000     2.2470 o          1 609      -0.627500
      9 NAX         -2.8420    -0.0090     0.0300 n          1 609      -0.243500
     10 CAU         -4.2030    -0.0090    -0.2400 ca         1 609      -0.045400
     11 CAK         -5.3390    -0.0040     0.5540 ca         1 609      -0.097000
     12 CAE         -6.5860    -0.0040    -0.0360 ca         1 609      -0.144000
     13 CAD         -6.7090    -0.0100    -1.4190 ca         1 609      -0.142000
     14 CAH         -5.6020    -0.0150    -2.2180 ca         1 609      -0.091000
     15 CAQ         -4.3260    -0.0150    -1.6410 ca         1 609       0.113400
     16 NAM         -3.0740    -0.0170    -2.1540 nc         1 609      -0.613100
     17 CAV         -2.1910    -0.0140    -1.1790 cd         1 609       0.494500
     18 CAT         -0.7140    -0.0020    -1.2200 ca         1 609      -0.176900
     19 CAL         -0.0260    -0.0020    -2.4230 ca         1 609      -0.046000
     20 CAG          1.3600    -0.0020    -2.4570 ca         1 609      -0.149000
     21 CAO          2.1080    -0.0000    -1.2840 ca         1 609      -0.018600
     22 CAN          3.5820    -0.0010    -1.3360 c          1 609       0.879200
     23 OAC          4.2150    -0.1170    -2.5190 o          1 609      -0.818300
     24 OAA          4.2250     0.1050    -0.3100 o          1 609      -0.818300
     25 HAI          3.1790    -0.0000     1.2340 ha         1 609       0.214000
     26 HAF          1.9420     0.0010     3.3350 ha         1 609       0.127000
     27 HAJ         -0.5180     0.0010     3.3610 ha         1 609       0.137000
     28 HAK         -5.2470     0.0010     1.6340 ha         1 609       0.149000
     29 HAE         -7.4750     0.0010     0.5830 ha         1 609       0.124000
     30 HAD         -7.6940    -0.0100    -1.8690 ha         1 609       0.121000
     31 HAH         -5.7100    -0.0200    -3.2960 ha         1 609       0.135000
     32 HAL         -0.4470    -0.0020    -3.4210 ha         1 609       0.139000
     33 HAG          1.7510     0.0040    -3.4670 ha         1 609       0.158000
@<TRIPOS>BOND
     1     6     1 ar  
     2     2     1 ar  
     3     1    18 ar  
     4     3     2 ar  
     5     2    21 ar  
     6     4     3 ar  
     7     3    25 1   
     8     4     5 ar  
     9     4    26 1   
    10     5     6 ar  
    11     5    27 1   
    12     6     7 1   
    13     8     7 2   
    14     7     9 1   
    15     9    17 1   
    16     9    10 1   
    17    11    10 ar  
    18    10    15 ar  
    19    11    12 ar  
    20    11    28 1   
    21    12    13 ar  
    22    12    29 1   
    23    13    14 ar  
    24    13    30 1   
    25    15    14 ar  
    26    14    31 1   
    27    16    15 1   
    28    17    16 2   
    29    18    17 1   
    30    18    19 ar  
    31    20    19 ar  
    32    19    32 1   
    33    21    20 ar  
    34    20    33 1   
    35    22    21 1   
    36    24    22 1   
    37    22    23 1   
@<TRIPOS>SUBSTRUCTURE
     1 609         1 TEMP              0 ****  ****    0 ROOT
