@<TRIPOS>MOLECULE
609
   33    37     1     0     0
SMALL
bcc


@<TRIPOS>ATOM
      1 CAW        -0.0160   -0.0040   -0.0150 ca        1 609      0.019000
      2 CAR         1.4060    0.0030   -0.0270 ca        1 609     -0.056000
      3 CAI         2.1000    0.0020    1.2130 ca        1 609     -0.018000
      4 CAF         1.4150   -0.0150    2.4090 ca        1 609     -0.207000
      5 CAJ         0.0090   -0.0290    2.4250 ca        1 609     -0.031000
      6 CAS        -0.7010   -0.0220    1.2360 ca        1 609     -0.192600
      7 CAP        -2.1780   -0.0310    1.2930 c         1 609      0.747100
      8 OAB        -2.8350   -0.0510    2.3500 o         1 609     -0.630500
      9 NAX        -2.8450   -0.0140    0.0570 n         1 609     -0.283500
     10 CAU        -4.2240   -0.0110   -0.2240 ca        1 609     -0.020400
     11 CAK        -5.3550   -0.0260    0.5920 ca        1 609     -0.109000
     12 CAE        -6.5970   -0.0180   -0.0370 ca        1 609     -0.139000
     13 CAD        -6.7150    0.0050   -1.4330 ca        1 609     -0.152000
     14 CAH        -5.5990    0.0200   -2.2640 ca        1 609     -0.092000
     15 CAQ        -4.3320    0.0120   -1.6730 ca        1 609      0.083400
     16 NAM        -3.0430    0.0230   -2.2520 nc        1 609     -0.587100
     17 CAV        -2.1790    0.0070   -1.2170 cd        1 609      0.499500
     18 CAT        -0.7230    0.0080   -1.2530 ca        1 609     -0.192900
     19 CAL        -0.0270    0.0180   -2.4530 ca        1 609     -0.033000
     20 CAG         1.3770    0.0140   -2.4530 ca        1 609     -0.162000
     21 CAO         2.1000    0.0090   -1.2730 ca        1 609     -0.045600
     22 CAN         3.6290   -0.0040   -1.3690 c         1 609      0.905200
     23 OAC         4.1290   -0.6560   -2.3230 o         1 609     -0.810300
     24 OAA         4.2940    0.6420   -0.5120 o         1 609     -0.810300
     25 HAI         3.2090    0.0340    1.1840 ha        1 609      0.202000
     26 HAF         1.9620   -0.0140    3.3620 ha        1 609      0.130000
     27 HAJ        -0.5340   -0.0430    3.3840 ha        1 609      0.141000
     28 HAK        -5.2560   -0.0440    1.6870 ha        1 609      0.158000
     29 HAE        -7.5080   -0.0290    0.5780 ha        1 609      0.122000
     30 HAD        -7.7180    0.0110   -1.8840 ha        1 609      0.120000
     31 HAH        -5.7030    0.0380   -3.3570 ha        1 609      0.139000
     32 HAL        -0.5710    0.0250   -3.4110 ha        1 609      0.143000
     33 HAG         1.9280   -0.0060   -3.4080 ha        1 609      0.162000
@<TRIPOS>BOND
     1    1    2 ar  
     2    1    6 ar  
     3    1   18 ar  
     4    2    3 ar  
     5    2   21 ar  
     6    3    4 ar  
     7    3   25 1   
     8    4    5 ar  
     9    4   26 1   
    10    5    6 ar  
    11    5   27 1   
    12    6    7 1   
    13    7    8 2   
    14    7    9 1   
    15    9   10 1   
    16    9   17 1   
    17   10   11 ar  
    18   10   15 ar  
    19   11   12 ar  
    20   11   28 1   
    21   12   13 ar  
    22   12   29 1   
    23   13   14 ar  
    24   13   30 1   
    25   14   15 ar  
    26   14   31 1   
    27   15   16 1   
    28   16   17 2   
    29   17   18 1   
    30   18   19 ar  
    31   19   20 ar  
    32   19   32 1   
    33   20   21 ar  
    34   20   33 1   
    35   21   22 1   
    36   22   23 1   
    37   22   24 1   
@<TRIPOS>SUBSTRUCTURE
     1 609         1 TEMP              0 ****  ****    0 ROOT
