@<TRIPOS>MOLECULE
molecule
   24    23     1     0     0
SMALL
bcc


@<TRIPOS>ATOM
      1 C8           0.0000     0.0000     0.0000 c3         1 60A       0.144400
      2 C7           1.5300     0.0000     0.0000 c3         1 60A       0.139400
      3 C1           3.8240     0.0000     2.9400 c3         1 60A       0.149100
      4 O5           2.0060     0.0000     1.3480 os         1 60A      -0.401600
      5 O4           3.3960    -1.2210     3.5460 os         1 60A      -0.399600
      6 C3           3.4300     0.0000     1.4610 c3         1 60A       0.140400
      7 C2           3.1550     1.1820     3.6460 c3         1 60A      -0.105100
      8 O9           3.9610    -0.8430     5.7790 oh         1 60A      -0.632800
      9 O10         -0.4770     1.2210     0.5690 oh         1 60A      -0.598800
     10 H1          -0.3610    -0.8360     0.5860 h1         1 60A       0.029700
     11 H2          -0.3610    -0.0900    -1.0170 h1         1 60A       0.029700
     12 H3           1.8910     0.8850    -0.5110 h1         1 60A       0.029200
     13 H4           1.8910    -0.8850    -0.5110 h1         1 60A       0.029200
     14 H5           4.9000     0.0890     3.0270 h1         1 60A       0.037700
     15 H6           4.0040    -2.6870     4.8610 h2         1 60A       0.028700
     16 H7           5.2640    -1.5550     4.3510 h2         1 60A       0.028700
     17 H8           3.8310     0.8850     0.9810 h1         1 60A       0.027700
     18 H9           3.8310    -0.8840     0.9810 h1         1 60A       0.027700
     19 H10          3.7560     1.4820     4.4960 hc         1 60A       0.048367
     20 H11          3.0670     2.0120     2.9550 hc         1 60A       0.048367
     21 H12          2.1690     0.8890     3.9850 hc         1 60A       0.048367
     22 H13          4.1820    -1.3240     6.5590 ho         1 60A       0.411000
     23 H14         -1.3960     1.3170     0.3820 ho         1 60A       0.398000
     24 C6           4.2220    -1.6510     4.6310 c3         1 60A       0.342200
@<TRIPOS>BOND
     1     8    24 1
     2     9     1 1
     3    24     5 1
     4     5     3 1
     5     3     6 1
     6     3     7 1
     7     4     6 1
     8     4     2 1
     9     1     2 1
    10     1    10 1
    11     1    11 1
    12     2    12 1
    13     2    13 1
    14     3    14 1
    15    24    15 1
    16    24    16 1
    17     6    17 1
    18     6    18 1
    19     7    19 1
    20     7    20 1
    21     7    21 1
    22     8    22 1
    23     9    23 1
@<TRIPOS>SUBSTRUCTURE
     1 60A         1 TEMP              0 ****  ****    0 ROOT
