@<TRIPOS>MOLECULE
molecule
   53    57     1     0     0
SMALL
bcc


@<TRIPOS>ATOM
      1 C4           0.0000     0.0000     0.0000 ca         1 60B      -0.063900
      2 C5           1.3940     0.0000     0.0000 ca         1 60B       0.509200
      3 C11         -3.1270     0.0180     1.8930 c3         1 60B       0.052000
      4 C7           1.4500    -0.0010     2.3160 ca         1 60B       0.681200
      5 C8           0.0670     0.0080     2.4060 ca         1 60B      -0.312300
      6 C9          -0.6790     0.0070     1.2350 ca         1 60B      -0.033200
      7 C12         -3.1000    -1.2740     2.7110 c3         1 60B      -0.109100
      8 C13         -2.9800     1.2190     2.8310 c3         1 60B      -0.109100
      9 N3          -0.9500     0.0010    -0.9710 nc         1 60B      -0.585100
     10 C1          -3.4320     0.0010    -1.1870 c3         1 60B      -0.095400
     11 C2          -2.1300     0.0010    -0.4260 cd         1 60B       0.417800
     12 N6           2.0600     0.0000     1.1370 nb         1 60B      -0.690000
     13 N10         -2.0200     0.0110     0.9320 na         1 60B      -0.152300
     14 N14          2.2140    -0.0000     3.4820 nu         1 60B      -0.862600
     15 C15          3.5940     0.1090     3.4070 ca         1 60B       0.722200
     16 C16          4.3770    -0.0070     4.5580 ca         1 60B      -0.449600
     17 C17          5.7500     0.1100     4.4370 ca         1 60B       0.490200
     18 N18          6.2780     0.3250     3.2430 nb         1 60B      -0.779000
     19 C19          5.5110     0.4300     2.1650 ca         1 60B       0.803500
     20 N20          4.1910     0.3200     2.2400 nb         1 60B      -0.730000
     21 C21          6.1440     0.6720     0.8480 cc         1 60B      -0.330800
     22 C22          5.4750     0.8150    -0.3850 cc         1 60B       0.399200
     23 N23          6.3720     1.0150    -1.3120 nd         1 60B      -0.481800
     24 N24          7.6390     1.0090    -0.7150 na         1 60B      -0.085100
     25 C25          7.4810     0.8040     0.6060 cd         1 60B      -0.039300
     26 S26          9.0810     1.2240    -1.4990 s6         1 60B       1.359000
     27 O27         10.0280     0.5490    -0.6820 o          1 60B      -0.594800
     28 O28          8.8250     0.7960    -2.8300 o          1 60B      -0.594800
     29 C29          9.3610     3.0150    -1.4490 cx         1 60B      -0.305900
     30 C30         10.5750     3.5620    -2.2040 cx         1 60B      -0.074400
     31 C31          9.1660     3.7970    -2.7510 cx         1 60B      -0.074400
     32 H1           1.9330     0.0010    -0.9400 h4         1 60B       0.038100
     33 H2          -4.0720     0.0950     1.3700 h1         1 60B       0.071700
     34 H3          -0.4220     0.0070     3.3720 ha         1 60B       0.130000
     35 H4          -2.3970    -1.1700     3.5280 hc         1 60B       0.049200
     36 H5          -2.7960    -2.0970     2.0760 hc         1 60B       0.049200
     37 H6          -4.0890    -1.4710     3.1080 hc         1 60B       0.049200
     38 H7          -3.9580     1.5240     3.1810 hc         1 60B       0.049200
     39 H8          -2.5150     2.0390     2.2970 hc         1 60B       0.049200
     40 H9          -2.3630     0.9430     3.6770 hc         1 60B       0.049200
     41 H10         -3.9880     0.9000    -0.9500 hc         1 60B       0.059367
     42 H11         -3.2280    -0.0280    -2.2500 hc         1 60B       0.059367
     43 H12         -4.0140    -0.8690    -0.9070 hc         1 60B       0.059367
     44 H13          1.7660    -0.0770     4.3740 hn         1 60B       0.463800
     45 H14          3.9200    -0.1830     5.5240 ha         1 60B       0.139000
     46 H15          6.3850     0.0250     5.3100 h4         1 60B       0.028100
     47 H16          4.4030     0.7670    -0.5360 h4         1 60B       0.077100
     48 H17          8.2730     0.7470     1.3440 h4         1 60B       0.209000
     49 H18          9.1030     3.5610    -0.5500 h1         1 60B       0.129700
     50 H19         11.1660     2.8250    -2.7350 hc         1 60B       0.090700
     51 H20         11.0540     4.4250    -1.7570 hc         1 60B       0.090700
     52 H21          8.8950     3.2040    -3.6160 hc         1 60B       0.090700
     53 H22          8.7830     4.8040    -2.6380 hc         1 60B       0.090700
@<TRIPOS>BOND
     1    22    23 2   
     2    22    21 1   
     3    23    24 1   
     4    27    26 2   
     5    18    17 ar  
     6    18    19 ar  
     7    21    19 1   
     8    21    25 2   
     9    24    26 1   
    10    24    25 1   
    11    17    16 ar  
    12    19    20 ar  
    13    26    29 1   
    14    26    28 2   
    15    29    30 1   
    16    29    31 1   
    17    16    15 ar  
    18    30    31 1   
    19    20    15 ar  
    20    15    14 1   
    21    14     4 1   
    22     4     5 ar  
    23     4    12 ar  
    24     5     6 ar  
    25     7     3 1   
    26     3     8 1   
    27     3    13 1   
    28    12     2 ar  
    29     6    13 1   
    30     6     1 ar  
    31    13    11 1   
    32     2     1 ar  
    33     1     9 1   
    34    11     9 2   
    35    11    10 1   
    36     2    32 1   
    37     3    33 1   
    38     5    34 1   
    39     7    35 1   
    40     7    36 1   
    41     7    37 1   
    42     8    38 1   
    43     8    39 1   
    44     8    40 1   
    45    10    41 1   
    46    10    42 1   
    47    10    43 1   
    48    14    44 1   
    49    16    45 1   
    50    17    46 1   
    51    22    47 1   
    52    25    48 1   
    53    29    49 1   
    54    30    50 1   
    55    30    51 1   
    56    31    52 1   
    57    31    53 1   
@<TRIPOS>SUBSTRUCTURE
     1 60B         1 TEMP              0 ****  ****    0 ROOT
