@<TRIPOS>MOLECULE
60B
   53    57     1     0     0
SMALL
bcc


@<TRIPOS>ATOM
      1 C4           0.0000     0.0000     0.0000 ca         1 60B      -0.088900
      2 C5           1.3940     0.0000     0.0000 ca         1 60B       0.496200
      3 C11         -3.1270     0.0180     1.8930 c3         1 60B      -0.063000
      4 C7           1.4500    -0.0010     2.3160 ca         1 60B       0.482200
      5 C8           0.0670     0.0080     2.4060 ca         1 60B      -0.282300
      6 C9          -0.6790     0.0070     1.2350 ca         1 60B      -0.199200
      7 C12         -3.1000    -1.2740     2.7110 c3         1 60B      -0.015100
      8 C13         -2.9800     1.2190     2.8310 c3         1 60B      -0.015100
      9 N3          -0.9500     0.0010    -0.9710 nc         1 60B      -0.491100
     10 C1          -3.4320     0.0010    -1.1870 c3         1 60B       0.016600
     11 C2          -2.1300     0.0010    -0.4260 cd         1 60B       0.210800
     12 N6           2.0600     0.0000     1.1370 nb         1 60B      -0.580000
     13 N10         -2.0200     0.0110     0.9320 na         1 60B       0.310700
     14 N14          2.2140    -0.0000     3.4820 nu         1 60B      -0.401600
     15 C15          3.5940     0.1090     3.4070 ca         1 60B       0.519200
     16 C16          4.3770    -0.0070     4.5580 ca         1 60B      -0.429600
     17 C17          5.7500     0.1100     4.4370 ca         1 60B       0.482200
     18 N18          6.2780     0.3250     3.2430 nb         1 60B      -0.675000
     19 C19          5.5110     0.4300     2.1650 ca         1 60B       0.734500
     20 N20          4.1910     0.3200     2.2400 nb         1 60B      -0.617000
     21 C21          6.1440     0.6720     0.8480 cc         1 60B      -0.374800
     22 C22          5.4750     0.8150    -0.3850 cc         1 60B       0.444200
     23 N23          6.3720     1.0150    -1.3120 nd         1 60B      -0.565800
     24 N24          7.6390     1.0090    -0.7150 na         1 60B       0.264900
     25 C25          7.4810     0.8040     0.6060 cd         1 60B      -0.103300
     26 S26          9.0810     1.2240    -1.4990 s6         1 60B       0.999000
     27 O27         10.0280     0.5490    -0.6820 o          1 60B      -0.557800
     28 O28          8.8250     0.7960    -2.8300 o          1 60B      -0.557800
     29 C29          9.3610     3.0150    -1.4490 cx         1 60B      -0.132900
     30 C30         10.5750     3.5620    -2.2040 cx         1 60B      -0.007900
     31 C31          9.1660     3.7970    -2.7510 cx         1 60B      -0.007900
     32 H1           1.9330     0.0010    -0.9400 h4         1 60B      -0.012900
     33 H2          -4.0720     0.0950     1.3700 h1         1 60B       0.048700
     34 H3          -0.4220     0.0070     3.3720 ha         1 60B       0.117000
     35 H4          -2.3970    -1.1700     3.5280 hc         1 60B       0.017367
     36 H5          -2.7960    -2.0970     2.0760 hc         1 60B       0.017367
     37 H6          -4.0890    -1.4710     3.1080 hc         1 60B       0.017367
     38 H7          -3.9580     1.5240     3.1810 hc         1 60B       0.017367
     39 H8          -2.5150     2.0390     2.2970 hc         1 60B       0.017367
     40 H9          -2.3630     0.9430     3.6770 hc         1 60B       0.017367
     41 H10         -3.9880     0.9000    -0.9500 hc         1 60B       0.015700
     42 H11         -3.2280    -0.0280    -2.2500 hc         1 60B       0.015700
     43 H12         -4.0140    -0.8690    -0.9070 hc         1 60B       0.015700
     44 H13          1.7660    -0.0770     4.3740 hn         1 60B       0.287800
     45 H14          3.9200    -0.1830     5.5240 ha         1 60B       0.122000
     46 H15          6.3850     0.0250     5.3100 h4         1 60B      -0.019900
     47 H16          4.4030     0.7670    -0.5360 h4         1 60B       0.026100
     48 H17          8.2730     0.7470     1.3440 h4         1 60B       0.171000
     49 H18          9.1030     3.5610    -0.5500 h1         1 60B       0.098700
     50 H19         11.1660     2.8250    -2.7350 hc         1 60B       0.055450
     51 H20         11.0540     4.4250    -1.7570 hc         1 60B       0.055450
     52 H21          8.8950     3.2040    -3.6160 hc         1 60B       0.055450
     53 H22          8.7830     4.8040    -2.6380 hc         1 60B       0.055450
@<TRIPOS>BOND
     1     1     2 ar  
     2     1     6 ar  
     3     1     9 1   
     4     2    12 ar  
     5     2    32 1   
     6     3     7 1   
     7     3     8 1   
     8     3    13 1   
     9     3    33 1   
    10     4     5 ar  
    11     4    12 ar  
    12     4    14 1   
    13     5     6 ar  
    14     5    34 1   
    15     6    13 1   
    16     7    35 1   
    17     7    36 1   
    18     7    37 1   
    19     8    38 1   
    20     8    39 1   
    21     8    40 1   
    22     9    11 2   
    23    10    11 1   
    24    10    41 1   
    25    10    42 1   
    26    10    43 1   
    27    11    13 1   
    28    14    15 1   
    29    14    44 1   
    30    15    16 ar  
    31    15    20 ar  
    32    16    17 ar  
    33    16    45 1   
    34    17    18 ar  
    35    17    46 1   
    36    18    19 ar  
    37    19    20 ar  
    38    19    21 1   
    39    21    22 1   
    40    21    25 2   
    41    22    23 2   
    42    22    47 1   
    43    23    24 1   
    44    24    25 1   
    45    24    26 1   
    46    25    48 1   
    47    26    27 2   
    48    26    28 2   
    49    26    29 1   
    50    29    30 1   
    51    29    31 1   
    52    29    49 1   
    53    30    31 1   
    54    30    50 1   
    55    30    51 1   
    56    31    52 1   
    57    31    53 1   
@<TRIPOS>SUBSTRUCTURE
     1 60B         1 TEMP              0 ****  ****    0 ROOT
