@<TRIPOS>MOLECULE
60D
   69    74     1     0     0
SMALL
bcc


@<TRIPOS>ATOM
      1 C14          0.0000     0.0000     0.0000 ca         1 60D       0.518200
      2 C5          -6.3590    -0.5260    -2.7670 cc         1 60D      -0.237100
      3 C6          -6.2450    -0.4640    -1.4100 cd         1 60D      -0.191400
      4 C7          -4.8070    -0.3340    -1.1170 ca         1 60D      -0.203100
      5 C8          -4.1600    -0.3300    -2.3680 ca         1 60D      -0.170200
      6 C9          -2.7730    -0.2200    -2.3890 ca         1 60D      -0.295300
      7 C10         -2.0920    -0.1100    -1.1870 ca         1 60D       0.490200
      8 C12         -4.0500    -0.2290     0.0430 ca         1 60D       0.498200
      9 C3          -5.3800    -1.8100    -5.3540 c3         1 60D      -0.011600
     10 C1          -5.5930     0.6770    -5.4550 c3         1 60D      -0.011600
     11 N4          -5.1280    -0.4520    -3.3360 na         1 60D       0.423600
     12 N11         -2.7390    -0.1090    -0.0280 nb         1 60D      -0.588000
     13 N13         -0.7030    -0.0000    -1.1960 nu         1 60D      -0.403600
     14 C15          1.3970     0.0000     0.0000 ca         1 60D      -0.429600
     15 C16          2.0550     0.0000     1.2150 ca         1 60D       0.480200
     16 N17          1.3510     0.0010     2.3350 nb         1 60D      -0.675000
     17 C18          0.0240     0.0020     2.3060 ca         1 60D       0.734500
     18 N19         -0.6460     0.0070     1.1610 nb         1 60D      -0.613000
     19 C20         -0.7270     0.0020     3.5820 cc         1 60D      -0.375800
     20 C21         -2.1300    -0.0030     3.7250 cc         1 60D       0.445200
     21 N22         -2.4080    -0.0000     5.0010 nd         1 60D      -0.565800
     22 N23         -1.2060     0.0060     5.7180 na         1 60D       0.265900
     23 C24         -0.1890     0.0030     4.8380 cd         1 60D      -0.106300
     24 S25         -1.0610     0.0120     7.3680 s6         1 60D       0.999000
     25 O26          0.1990     0.6230     7.6070 o          1 60D      -0.558800
     26 O27         -2.2650     0.6130     7.8240 o          1 60D      -0.558800
     27 C28         -1.0140    -1.7430     7.8240 cx         1 60D      -0.131900
     28 C29         -1.0000    -2.0860     9.3150 cx         1 60D      -0.008900
     29 C30         -2.2610    -2.3360     8.4840 cx         1 60D      -0.008900
     30 C31         -7.3410    -0.5170    -0.4330 c          1 60D       0.632300
     31 O32         -7.0970    -0.4510     0.7570 o          1 60D      -0.653100
     32 N33         -8.6150    -0.6380    -0.8550 ns         1 60D      -0.197900
     33 C34         -9.7070    -0.6900     0.1200 c3         1 60D       0.023700
     34 C35        -10.1320     0.7340     0.4910 c3         1 60D      -0.083400
     35 C36        -11.3240     0.6700     1.4480 c3         1 60D       0.220400
     36 O37        -12.3920    -0.0520     0.8310 os         1 60D      -0.411600
     37 C38        -12.0680    -1.4060     0.5040 c3         1 60D       0.220400
     38 C39        -10.9050    -1.4240    -0.4910 c3         1 60D      -0.083400
     39 H1          -7.2910    -0.6190    -3.3110 h4         1 60D       0.142000
     40 H2          -2.2340    -0.2200    -3.3290 ha         1 60D       0.112000
     41 H3          -4.5400    -0.2230     1.0090 h4         1 60D       0.005100
     42 H4          -5.0880    -2.6250    -4.7020 hc         1 60D       0.015867
     43 H5          -4.9410    -1.9560    -6.3330 hc         1 60D       0.015867
     44 H6          -6.4600    -1.7880    -5.4420 hc         1 60D       0.015867
     45 H7          -5.4500     1.5780    -4.8710 hc         1 60D       0.015867
     46 H8          -6.6530     0.4930    -5.5820 hc         1 60D       0.015867
     47 H9          -5.1280     0.7980    -6.4260 hc         1 60D       0.015867
     48 H10         -3.8050    -0.4050    -4.9550 h1         1 60D       0.050700
     49 H11         -0.2160     0.1090    -2.0630 hn         1 60D       0.287800
     50 H12          1.9510    -0.0010    -0.9310 ha         1 60D       0.122000
     51 H13          3.1380    -0.0000     1.2500 h4         1 60D      -0.020900
     52 H14         -2.8520    -0.0080     2.9170 h4         1 60D       0.029100
     53 H15          0.8670     0.0060     5.0800 h4         1 60D       0.170000
     54 H16         -0.4630    -2.4330     7.1960 h1         1 60D       0.098700
     55 H17         -0.4360    -2.9700     9.5870 hc         1 60D       0.055200
     56 H18         -1.0450    -1.2390     9.9900 hc         1 60D       0.055200
     57 H19         -3.0760    -1.6420     8.6510 hc         1 60D       0.055200
     58 H20         -2.4670    -3.3730     8.2480 hc         1 60D       0.055200
     59 H21         -8.8110    -0.7370    -1.8320 hn         1 60D       0.170500
     60 H22         -9.3800    -1.2130     1.0110 h1         1 60D       0.059700
     61 H23         -9.3070     1.2420     0.9760 hc         1 60D       0.028450
     62 H24        -10.4170     1.2710    -0.4060 hc         1 60D       0.028450
     63 H25        -11.0280     0.1640     2.3590 h1         1 60D       0.010200
     64 H26        -11.6560     1.6750     1.6780 h1         1 60D       0.010200
     65 H27        -11.7790    -1.9340     1.4050 h1         1 60D       0.010200
     66 H28        -12.9310    -1.8850     0.0580 h1         1 60D       0.010200
     67 H29        -10.6290    -2.4500    -0.7050 hc         1 60D       0.028450
     68 H30        -11.2050    -0.9270    -1.4060 hc         1 60D       0.028450
     69 C2          -4.8700    -0.4890    -4.7770 c3         1 60D      -0.076000
@<TRIPOS>BOND
     1     1    13 1   
     2     1    14 ar  
     3     1    18 ar  
     4     2     3 2   
     5     2    11 1   
     6     2    39 1   
     7     3     4 1   
     8     3    30 1   
     9     4     5 ar  
    10     4     8 ar  
    11     5     6 ar  
    12     5    11 1   
    13     6     7 ar  
    14     6    40 1   
    15     7    12 ar  
    16     7    13 1   
    17     8    12 ar  
    18     8    41 1   
    19     9    42 1   
    20     9    43 1   
    21     9    44 1   
    22     9    69 1   
    23    10    45 1   
    24    10    46 1   
    25    10    47 1   
    26    10    69 1   
    27    11    69 1   
    28    13    49 1   
    29    14    15 ar  
    30    14    50 1   
    31    15    16 ar  
    32    15    51 1   
    33    16    17 ar  
    34    17    18 ar  
    35    17    19 1   
    36    19    20 1   
    37    19    23 2   
    38    20    21 2   
    39    20    52 1   
    40    21    22 1   
    41    22    23 1   
    42    22    24 1   
    43    23    53 1   
    44    24    25 2   
    45    24    26 2   
    46    24    27 1   
    47    27    28 1   
    48    27    29 1   
    49    27    54 1   
    50    28    29 1   
    51    28    55 1   
    52    28    56 1   
    53    29    57 1   
    54    29    58 1   
    55    30    31 2   
    56    30    32 1   
    57    32    33 1   
    58    32    59 1   
    59    33    34 1   
    60    33    38 1   
    61    33    60 1   
    62    34    35 1   
    63    34    61 1   
    64    34    62 1   
    65    35    36 1   
    66    35    63 1   
    67    35    64 1   
    68    36    37 1   
    69    37    38 1   
    70    37    65 1   
    71    37    66 1   
    72    38    67 1   
    73    38    68 1   
    74    48    69 1   
@<TRIPOS>SUBSTRUCTURE
     1 60D         1 TEMP              0 ****  ****    0 ROOT
