@<TRIPOS>MOLECULE
molecule
   69    74     1     0     0
SMALL
bcc


@<TRIPOS>ATOM
      1 C14          0.0000     0.0000     0.0000 ca         1 60D       0.720200
      2 C5          -6.3590    -0.5260    -2.7670 cc         1 60D      -0.069100
      3 C6          -6.2450    -0.4640    -1.4100 cd         1 60D      -0.200400
      4 C7          -4.8070    -0.3340    -1.1170 ca         1 60D      -0.219100
      5 C8          -4.1600    -0.3300    -2.3680 ca         1 60D       0.009800
      6 C9          -2.7730    -0.2200    -2.3890 ca         1 60D      -0.329300
      7 C10         -2.0920    -0.1100    -1.1870 ca         1 60D       0.690200
      8 C12         -4.0500    -0.2290     0.0430 ca         1 60D       0.511200
      9 C3          -5.3800    -1.8100    -5.3540 c3         1 60D      -0.110100
     10 C1          -5.5930     0.6770    -5.4550 c3         1 60D      -0.110100
     11 N4          -5.1280    -0.4520    -3.3360 na         1 60D      -0.054400
     12 N11         -2.7390    -0.1090    -0.0280 nb         1 60D      -0.698000
     13 N13         -0.7030    -0.0000    -1.1960 nu         1 60D      -0.863600
     14 C15          1.3970     0.0000     0.0000 ca         1 60D      -0.449600
     15 C16          2.0550     0.0000     1.2150 ca         1 60D       0.489200
     16 N17          1.3510     0.0010     2.3350 nb         1 60D      -0.778000
     17 C18          0.0240     0.0020     2.3060 ca         1 60D       0.802500
     18 N19         -0.6460     0.0070     1.1610 nb         1 60D      -0.725000
     19 C20         -0.7270     0.0020     3.5820 cc         1 60D      -0.331800
     20 C21         -2.1300    -0.0030     3.7250 cc         1 60D       0.401200
     21 N22         -2.4080    -0.0000     5.0010 nd         1 60D      -0.480800
     22 N23         -1.2060     0.0060     5.7180 na         1 60D      -0.084100
     23 C24         -0.1890     0.0030     4.8380 cd         1 60D      -0.041300
     24 S25         -1.0610     0.0120     7.3680 s6         1 60D       1.360000
     25 O26          0.1990     0.6230     7.6070 o          1 60D      -0.596300
     26 O27         -2.2650     0.6130     7.8240 o          1 60D      -0.596300
     27 C28         -1.0140    -1.7430     7.8240 cx         1 60D      -0.304900
     28 C29         -1.0000    -2.0860     9.3150 cx         1 60D      -0.074400
     29 C30         -2.2610    -2.3360     8.4840 cx         1 60D      -0.074400
     30 C31         -7.3410    -0.5170    -0.4330 c          1 60D       0.704300
     31 O32         -7.0970    -0.4510     0.7570 o          1 60D      -0.613100
     32 N33         -8.6150    -0.6380    -0.8550 ns         1 60D      -0.582900
     33 C34         -9.7070    -0.6900     0.1200 c3         1 60D       0.119700
     34 C35        -10.1320     0.7340     0.4910 c3         1 60D      -0.133400
     35 C36        -11.3240     0.6700     1.4480 c3         1 60D       0.140400
     36 O37        -12.3920    -0.0520     0.8310 os         1 60D      -0.424600
     37 C38        -12.0680    -1.4060     0.5040 c3         1 60D       0.140400
     38 C39        -10.9050    -1.4240    -0.4910 c3         1 60D      -0.133400
     39 H1          -7.2910    -0.6190    -3.3110 h4         1 60D       0.164000
     40 H2          -2.2340    -0.2200    -3.3290 ha         1 60D       0.128000
     41 H3          -4.5400    -0.2230     1.0090 h4         1 60D       0.052100
     42 H4          -5.0880    -2.6250    -4.7020 hc         1 60D       0.049033
     43 H5          -4.9410    -1.9560    -6.3330 hc         1 60D       0.049033
     44 H6          -6.4600    -1.7880    -5.4420 hc         1 60D       0.049033
     45 H7          -5.4500     1.5780    -4.8710 hc         1 60D       0.049033
     46 H8          -6.6530     0.4930    -5.5820 hc         1 60D       0.049033
     47 H9          -5.1280     0.7980    -6.4260 hc         1 60D       0.049033
     48 H10         -3.8050    -0.4050    -4.9550 h1         1 60D       0.075700
     49 H11         -0.2160     0.1090    -2.0630 hn         1 60D       0.462800
     50 H12          1.9510    -0.0010    -0.9310 ha         1 60D       0.138000
     51 H13          3.1380    -0.0000     1.2500 h4         1 60D       0.027100
     52 H14         -2.8520    -0.0080     2.9170 h4         1 60D       0.080100
     53 H15          0.8670     0.0060     5.0800 h4         1 60D       0.208000
     54 H16         -0.4630    -2.4330     7.1960 h1         1 60D       0.129700
     55 H17         -0.4360    -2.9700     9.5870 hc         1 60D       0.090450
     56 H18         -1.0450    -1.2390     9.9900 hc         1 60D       0.090450
     57 H19         -3.0760    -1.6420     8.6510 hc         1 60D       0.090450
     58 H20         -2.4670    -3.3730     8.2480 hc         1 60D       0.090450
     59 H21         -8.8110    -0.7370    -1.8320 hn         1 60D       0.307500
     60 H22         -9.3800    -1.2130     1.0110 h1         1 60D       0.081700
     61 H23         -9.3070     1.2420     0.9760 hc         1 60D       0.056950
     62 H24        -10.4170     1.2710    -0.4060 hc         1 60D       0.056950
     63 H25        -11.0280     0.1640     2.3590 h1         1 60D       0.050700
     64 H26        -11.6560     1.6750     1.6780 h1         1 60D       0.050700
     65 H27        -11.7790    -1.9340     1.4050 h1         1 60D       0.050700
     66 H28        -12.9310    -1.8850     0.0580 h1         1 60D       0.050700
     67 H29        -10.6290    -2.4500    -0.7050 hc         1 60D       0.056950
     68 H30        -11.2050    -0.9270    -1.4060 hc         1 60D       0.056950
     69 C2          -4.8700    -0.4890    -4.7770 c3         1 60D       0.048000
@<TRIPOS>BOND
     1    20    21 2   
     2    20    19 1   
     3    21    22 1   
     4    25    24 2   
     5    16    15 ar  
     6    16    17 ar  
     7    19    17 1   
     8    19    23 2   
     9    22    24 1   
    10    22    23 1   
    11    15    14 ar  
    12    17    18 ar  
    13    24    27 1   
    14    24    26 2   
    15    27    28 1   
    16    27    29 1   
    17    14     1 ar  
    18    28    29 1   
    19    18     1 ar  
    20     1    13 1   
    21    13     7 1   
    22     7     6 ar  
    23     7    12 ar  
    24     6     5 ar  
    25    69     9 1   
    26    69    10 1   
    27    69    11 1   
    28    12     8 ar  
    29     5    11 1   
    30     5     4 ar  
    31    11     2 1   
    32     8     4 ar  
    33     4     3 1   
    34     2     3 2   
    35     3    30 1   
    36    30    31 2   
    37    30    32 1   
    38    32    33 1   
    39    33    38 1   
    40    33    34 1   
    41    38    37 1   
    42    34    35 1   
    43    35    36 1   
    44    37    36 1   
    45     2    39 1   
    46     6    40 1   
    47     8    41 1   
    48     9    42 1   
    49     9    43 1   
    50     9    44 1   
    51    10    45 1   
    52    10    46 1   
    53    10    47 1   
    54    69    48 1   
    55    13    49 1   
    56    14    50 1   
    57    15    51 1   
    58    20    52 1   
    59    23    53 1   
    60    27    54 1   
    61    28    55 1   
    62    28    56 1   
    63    29    57 1   
    64    29    58 1   
    65    32    59 1   
    66    33    60 1   
    67    34    61 1   
    68    34    62 1   
    69    35    63 1   
    70    35    64 1   
    71    37    65 1   
    72    37    66 1   
    73    38    67 1   
    74    38    68 1   
@<TRIPOS>SUBSTRUCTURE
     1 60D         1 TEMP              0 ****  ****    0 ROOT
