@<TRIPOS>MOLECULE
molecule
   72    77     1     0     0
SMALL
bcc


@<TRIPOS>ATOM
      1 C4           0.0000     0.0000     0.0000 c3         1 60E      -0.105100
      2 C6           2.8070    -1.2000    -1.8050 ca         1 60E       0.041800
      3 C11          3.0420    -2.5520    -2.1380 ca         1 60E      -0.395200
      4 C7           3.3790    -0.2140    -2.6060 ca         1 60E      -0.350300
      5 C8           4.1450    -0.5990    -3.6920 ca         1 60E       0.709200
      6 C10          3.8280    -2.8510    -3.2500 ca         1 60E       0.530200
      7 C12          2.3320    -3.3480    -1.1360 cc         1 60E       0.523800
      8 C3           1.5300     0.0000     0.0000 c3         1 60E       0.092000
      9 C2           2.0390     0.0000     1.4430 c3         1 60E      -0.098400
     10 N5           2.0180    -1.1970    -0.6910 na         1 60E       0.068900
     11 N9           4.3390    -1.8820    -3.9800 nb         1 60E      -0.717000
     12 N13          1.7500    -2.5170    -0.3110 nd         1 60E      -0.538100
     13 N14          2.2850    -4.7410    -1.0710 nn         1 60E      -0.582600
     14 C15          1.2320    -5.2760    -1.9540 cy         1 60E       0.126300
     15 C16          0.8800    -6.2710    -0.8390 cy         1 60E      -0.097700
     16 C17          1.4740    -5.1910     0.0750 cy         1 60E       0.126300
     17 C18         -0.6220    -6.4940    -0.6510 c3         1 60E       0.156800
     18 C19         -1.2240    -7.0420    -1.9470 c3         1 60E      -0.119100
     19 C20         -0.8490    -7.4990     0.4810 c3         1 60E      -0.119100
     20 O21         -1.2500    -5.2550    -0.3210 oh         1 60E      -0.604800
     21 N22          4.7230     0.3770    -4.5010 nu         1 60E      -0.861600
     22 C23          5.5820     0.0100    -5.5260 ca         1 60E       0.720200
     23 C24          6.2510     0.9820    -6.2720 ca         1 60E      -0.447600
     24 C25          7.0980     0.5700    -7.2850 ca         1 60E       0.489200
     25 N26          7.2470    -0.7250    -7.5170 nb         1 60E      -0.778000
     26 C27          6.5990    -1.6270    -6.7930 ca         1 60E       0.800500
     27 N28          5.7820    -1.2730    -5.8090 nb         1 60E      -0.725000
     28 C29          6.7950    -3.0670    -7.0860 cc         1 60E      -0.330800
     29 C30          6.1790    -4.1450    -6.4180 cc         1 60E       0.400200
     30 N31          6.6040    -5.2530    -6.9620 nd         1 60E      -0.484800
     31 N32          7.4990    -4.9310    -7.9900 na         1 60E      -0.084100
     32 C33          7.6010    -3.5910    -8.0570 cd         1 60E      -0.038300
     33 S34          8.2910    -6.0140    -8.9620 s6         1 60E       1.360000
     34 O35          9.4650    -5.3250    -9.3680 o          1 60E      -0.595300
     35 O36          8.3690    -7.1960    -8.1780 o          1 60E      -0.595300
     36 C37          7.1750    -6.2570   -10.3710 cx         1 60E      -0.303900
     37 C38          7.6240    -5.7120   -11.7300 cx         1 60E      -0.078400
     38 C39          7.6260    -7.2200   -11.4710 cx         1 60E      -0.078400
     39 H1          -0.3610    -0.4090    -0.9360 hc         1 60E       0.048033
     40 H2          -0.3610     1.0150     0.1140 hc         1 60E       0.048033
     41 H3          -0.3610    -0.6060     0.8220 hc         1 60E       0.048033
     42 H4           3.2280     0.8360    -2.3820 ha         1 60E       0.132000
     43 H5           4.0110    -3.8840    -3.5200 h4         1 60E       0.033100
     44 H6           1.8910     0.8840    -0.5110 h1         1 60E       0.065700
     45 H7           2.3020     1.5030     2.9570 hc         1 60E       0.035700
     46 H8           1.6980     2.1220     1.4140 hc         1 60E       0.035700
     47 H9           0.6180     1.2250     2.4920 hc         1 60E       0.035700
     48 H10          1.6070    -0.8360     1.9790 hc         1 60E       0.059700
     49 H11          3.1190    -0.0890     1.4440 hc         1 60E       0.059700
     50 H12          0.4410    -4.5620    -2.1480 h1         1 60E       0.075700
     51 H13          1.6290    -5.7580    -2.8390 h1         1 60E       0.075700
     52 H14          1.4760    -7.1750    -0.8720 hc         1 60E       0.089700
     53 H15          0.7440    -4.4560     0.3900 h1         1 60E       0.075700
     54 H16          2.0730    -5.6020     0.8800 h1         1 60E       0.075700
     55 H17         -0.5880    -7.8290    -2.3360 hc         1 60E       0.043367
     56 H18         -1.2980    -6.2450    -2.6760 hc         1 60E       0.043367
     57 H19         -2.2100    -7.4410    -1.7460 hc         1 60E       0.043367
     58 H20         -0.4210    -7.1130     1.3980 hc         1 60E       0.043367
     59 H21         -1.9130    -7.6550     0.6160 hc         1 60E       0.043367
     60 H22         -0.3760    -8.4400     0.2290 hc         1 60E       0.043367
     61 H23         -2.1650    -5.4020    -0.1470 ho         1 60E       0.406000
     62 H24          4.5070     1.3430    -4.3510 hn         1 60E       0.464800
     63 H25          6.1110     2.0360    -6.0620 ha         1 60E       0.139000
     64 H26          7.6320     1.2990    -7.8820 h4         1 60E       0.028100
     65 H27          5.4770    -4.0670    -5.5970 h4         1 60E       0.078100
     66 H28          8.2160    -3.0300    -8.7500 h4         1 60E       0.208000
     67 H29          6.1050    -6.2300   -10.2020 h1         1 60E       0.136700
     68 H30          8.5980    -5.2390   -11.7450 hc         1 60E       0.089950
     69 H31          6.8310    -5.3490   -12.3730 hc         1 60E       0.089950
     70 H32          6.8350    -7.7790   -11.9570 hc         1 60E       0.089950
     71 H33          8.6020    -7.6690   -11.3290 hc         1 60E       0.089950
     72 C1           1.6350     1.3080     2.1260 c3         1 60E      -0.093100
@<TRIPOS>BOND
     1    29    30 2
     2    29    28 1
     3    30    31 1
     4    35    33 2
     5    25    24 ar
     6    25    26 ar
     7    28    26 1
     8    28    32 2
     9    31    33 1
    10    31    32 1
    11    24    23 ar
    12    26    27 ar
    13    33    36 1
    14    33    34 2
    15    23    22 ar
    16    37    36 1
    17    37    38 1
    18    36    38 1
    19    27    22 ar
    20    22    21 1
    21    21     5 1
    22     5     4 ar
    23     5    11 ar
    24     4     2 ar
    25    72     9 1
    26     8     1 1
    27     8     9 1
    28     8    10 1
    29    11     6 ar
    30     2    10 1
    31     2     3 ar
    32    10    12 1
    33     6     3 ar
    34     3     7 1
    35    12     7 2
    36     7    13 1
    37    13    16 1
    38    13    14 1
    39    16    15 1
    40    14    15 1
    41    15    17 1
    42    17    20 1
    43    17    19 1
    44    17    18 1
    45     1    39 1
    46     1    40 1
    47     1    41 1
    48     4    42 1
    49     6    43 1
    50     8    44 1
    51    72    45 1
    52    72    46 1
    53    72    47 1
    54     9    48 1
    55     9    49 1
    56    14    50 1
    57    14    51 1
    58    15    52 1
    59    16    53 1
    60    16    54 1
    61    18    55 1
    62    18    56 1
    63    18    57 1
    64    19    58 1
    65    19    59 1
    66    19    60 1
    67    20    61 1
    68    21    62 1
    69    23    63 1
    70    24    64 1
    71    29    65 1
    72    32    66 1
    73    36    67 1
    74    37    68 1
    75    37    69 1
    76    38    70 1
    77    38    71 1
@<TRIPOS>SUBSTRUCTURE
     1 60E         1 TEMP              0 ****  ****    0 ROOT
