@<TRIPOS>MOLECULE
molecule
   46    47     1     0     0
SMALL
bcc


@<TRIPOS>ATOM
      1 C2           0.0000     0.0000     0.0000 ca         1 60G       0.881900
      2 C4           2.0040     0.0000     1.1410 ca         1 60G       0.738100
      3 C5           1.3070    -0.0000     2.3450 ca         1 60G      -0.447600
      4 C6          -0.0830     0.0120     2.3050 ca         1 60G       0.738100
      5 CAA         -6.1110     3.5080    -6.1970 c3         1 60G       0.140700
      6 OAR         -6.9030     3.1500    -5.0330 os         1 60G      -0.422900
      7 OAE         -5.0510     2.3980    -4.0680 o          1 60G      -0.562000
      8 CBA         -6.9890     2.1970    -2.7820 ca         1 60G      -0.127600
      9 CAK         -8.3820     2.3040    -2.7430 ca         1 60G      -0.074000
     10 CAI         -9.0660     1.9390    -1.6030 ca         1 60G      -0.138000
     11 CAH         -8.3770     1.4670    -0.4990 ca         1 60G      -0.094000
     12 CAJ         -6.9990     1.3570    -0.5320 ca         1 60G      -0.120000
     13 CAW         -6.3010     1.7140    -1.6670 ca         1 60G      -0.024300
     14 CAM         -4.7990     1.5930    -1.7000 c3         1 60G      -0.174300
     15 SBB         -4.3360     0.0010    -2.4360 s6         1 60G       1.345600
     16 OAF         -4.7000    -1.0690    -1.5760 o          1 60G      -0.603800
     17 OAG         -4.6660    -0.0240    -3.8180 o          1 60G      -0.603800
     18 NAQ         -2.6810     0.0010    -2.4110 ns         1 60G      -0.658300
     19 CAU         -2.0240     0.0010    -1.2340 c          1 60G       0.793100
     20 OAD         -2.6480     0.0010    -0.1900 o          1 60G      -0.571100
     21 NAP         -0.6770     0.0010    -1.2130 ns         1 60G      -0.536400
     22 N3           1.3240     0.0000     0.0000 nb         1 60G      -0.857000
     23 N1          -0.6960     0.0050     1.1260 nb         1 60G      -0.857000
     24 OAS         -0.8030     0.0160     3.4530 os         1 60G      -0.429600
     25 CAB         -2.2260     0.0160     3.3270 c3         1 60G       0.135700
     26 OAT          3.3590    -0.0000     1.1330 os         1 60G      -0.429600
     27 CAC          4.0000    -0.0000    -0.1440 c3         1 60G       0.135700
     28 H1           1.8340     0.0020     3.2910 ha         1 60G       0.170000
     29 H2          -5.6310     2.6210    -6.5940 h1         1 60G       0.051367
     30 H3          -6.7560     3.9380    -6.9540 h1         1 60G       0.051367
     31 H4          -5.3560     4.2300    -5.9120 h1         1 60G       0.051367
     32 H5          -8.9220     2.6730    -3.6060 ha         1 60G       0.153000
     33 H6         -10.1460     2.0220    -1.5710 ha         1 60G       0.139000
     34 H7          -8.9200     1.1830     0.3940 ha         1 60G       0.139000
     35 H8          -6.4660     0.9840     0.3350 ha         1 60G       0.153000
     36 H9          -4.3860     2.3990    -2.2940 h1         1 60G       0.129700
     37 H10         -4.4100     1.6520    -0.6910 h1         1 60G       0.129700
     38 H11         -2.1680    -0.0280    -3.2700 hn         1 60G       0.343500
     39 H12         -0.1630    -0.0110    -2.0720 hn         1 60G       0.342500
     40 H13         -2.6760     0.0250     4.3120 h1         1 60G       0.051367
     41 H14         -2.5410    -0.8730     2.7940 h1         1 60G       0.051367
     42 H15         -2.5390     0.8960     2.7780 h1         1 60G       0.051367
     43 H16          3.7060     0.8840    -0.6960 h1         1 60G       0.051367
     44 H17          5.0750    -0.0000    -0.0090 h1         1 60G       0.051367
     45 H18          3.7060    -0.8850    -0.6960 h1         1 60G       0.051367
     46 CAV         -6.2500     2.5870    -4.0000 c          1 60G       0.660700
@<TRIPOS>BOND
     1    11    10 ar
     2    11    12 ar
     3    10     9 ar
     4    25    24 1
     5    24     4 1
     6    12    13 ar
     7    17    15 2
     8     9     8 ar
     9    13     8 ar
    10    13    14 1
    11     4    23 ar
    12     4     3 ar
    13     8    46 1
    14    15    16 2
    15    15    18 1
    16    15    14 1
    17    23     1 ar
    18     3     2 ar
    19    18    19 1
    20     6    46 1
    21     6     5 1
    22    46     7 2
    23     1    22 ar
    24     1    21 1
    25     2    22 ar
    26     2    26 1
    27    19    21 1
    28    19    20 2
    29    26    27 1
    30     3    28 1
    31     5    29 1
    32     5    30 1
    33     5    31 1
    34     9    32 1
    35    10    33 1
    36    11    34 1
    37    12    35 1
    38    14    36 1
    39    14    37 1
    40    18    38 1
    41    21    39 1
    42    25    40 1
    43    25    41 1
    44    25    42 1
    45    27    43 1
    46    27    44 1
    47    27    45 1
@<TRIPOS>SUBSTRUCTURE
     1 60G         1 TEMP              0 ****  ****    0 ROOT
