@<TRIPOS>MOLECULE
60G
   46    47     1     0     0
SMALL
bcc


@<TRIPOS>ATOM
      1 C2           0.0000     0.0000     0.0000 ca         1 60G       0.653900
      2 C4           2.0040     0.0000     1.1410 ca         1 60G       0.710100
      3 C5           1.3070    -0.0000     2.3450 ca         1 60G      -0.444600
      4 C6          -0.0830     0.0120     2.3050 ca         1 60G       0.710100
      5 CAA         -6.1110     3.5080    -6.1970 c3         1 60G       0.272700
      6 OAR         -6.9030     3.1500    -5.0330 os         1 60G      -0.413900
      7 OAE         -5.0510     2.3980    -4.0680 o          1 60G      -0.593000
      8 CBA         -6.9890     2.1970    -2.7820 ca         1 60G      -0.146600
      9 CAK         -8.3820     2.3040    -2.7430 ca         1 60G      -0.046000
     10 CAI         -9.0660     1.9390    -1.6030 ca         1 60G      -0.116000
     11 CAH         -8.3770     1.4670    -0.4990 ca         1 60G      -0.062000
     12 CAJ         -6.9990     1.3570    -0.5320 ca         1 60G      -0.100000
     13 CAW         -6.3010     1.7140    -1.6670 ca         1 60G      -0.009300
     14 CAM         -4.7990     1.5930    -1.7000 c3         1 60G       0.023700
     15 SBB         -4.3360     0.0010    -2.4360 s6         1 60G       0.974600
     16 OAF         -4.7000    -1.0690    -1.5760 o          1 60G      -0.560800
     17 OAG         -4.6660    -0.0240    -3.8180 o          1 60G      -0.560800
     18 NAQ         -2.6810     0.0010    -2.4110 ns         1 60G      -0.321300
     19 CAU         -2.0240     0.0010    -1.2340 c          1 60G       0.615100
     20 OAD         -2.6480     0.0010    -0.1900 o          1 60G      -0.619100
     21 NAP         -0.6770     0.0010    -1.2130 ns         1 60G      -0.099400
     22 N3           1.3240     0.0000     0.0000 nb         1 60G      -0.750000
     23 N1          -0.6960     0.0050     1.1260 nb         1 60G      -0.750000
     24 OAS         -0.8030     0.0160     3.4530 os         1 60G      -0.422600
     25 CAB         -2.2260     0.0160     3.3270 c3         1 60G       0.254700
     26 OAT          3.3590    -0.0000     1.1330 os         1 60G      -0.422600
     27 CAC          4.0000    -0.0000    -0.1440 c3         1 60G       0.254700
     28 H1           1.8340     0.0020     3.2910 ha         1 60G       0.147000
     29 H2          -5.6310     2.6210    -6.5940 h1         1 60G       0.001700
     30 H3          -6.7560     3.9380    -6.9540 h1         1 60G       0.001700
     31 H4          -5.3560     4.2300    -5.9120 h1         1 60G       0.001700
     32 H5          -8.9220     2.6730    -3.6060 ha         1 60G       0.118000
     33 H6         -10.1460     2.0220    -1.5710 ha         1 60G       0.108000
     34 H7          -8.9200     1.1830     0.3940 ha         1 60G       0.106000
     35 H8          -6.4660     0.9840     0.3350 ha         1 60G       0.124000
     36 H9          -4.3860     2.3990    -2.2940 h1         1 60G       0.102200
     37 H10         -4.4100     1.6520    -0.6910 h1         1 60G       0.102200
     38 H11         -2.1680    -0.0280    -3.2700 hn         1 60G       0.228500
     39 H12         -0.1630    -0.0110    -2.0720 hn         1 60G       0.174500
     40 H13         -2.6760     0.0250     4.3120 h1         1 60G       0.003867
     41 H14         -2.5410    -0.8730     2.7940 h1         1 60G       0.003867
     42 H15         -2.5390     0.8960     2.7780 h1         1 60G       0.003867
     43 H16          3.7060     0.8840    -0.6960 h1         1 60G       0.003867
     44 H17          5.0750    -0.0000    -0.0090 h1         1 60G       0.003867
     45 H18          3.7060    -0.8850    -0.6960 h1         1 60G       0.003867
     46 CAV         -6.2500     2.5870    -4.0000 c          1 60G       0.733700
@<TRIPOS>BOND
     1     1    21 1   
     2     1    22 ar  
     3     1    23 ar  
     4     2     3 ar  
     5     2    22 ar  
     6     2    26 1   
     7     3     4 ar  
     8     3    28 1   
     9     4    23 ar  
    10     4    24 1   
    11     5     6 1   
    12     5    29 1   
    13     5    30 1   
    14     5    31 1   
    15     6    46 1   
    16     7    46 2   
    17     8     9 ar  
    18     8    13 ar  
    19     8    46 1   
    20     9    10 ar  
    21     9    32 1   
    22    10    11 ar  
    23    10    33 1   
    24    11    12 ar  
    25    11    34 1   
    26    12    13 ar  
    27    12    35 1   
    28    13    14 1   
    29    14    15 1   
    30    14    36 1   
    31    14    37 1   
    32    15    16 2   
    33    15    17 2   
    34    15    18 1   
    35    18    19 1   
    36    18    38 1   
    37    19    20 2   
    38    19    21 1   
    39    21    39 1   
    40    24    25 1   
    41    25    40 1   
    42    25    41 1   
    43    25    42 1   
    44    26    27 1   
    45    27    43 1   
    46    27    44 1   
    47    27    45 1   
@<TRIPOS>SUBSTRUCTURE
     1 60G         1 TEMP              0 ****  ****    0 ROOT
