@<TRIPOS>MOLECULE
molecule
   37    39     1     0     0
SMALL
bcc


@<TRIPOS>ATOM
      1 N10          0.0000     0.0000     0.0000 n7         1 60H      -0.802200
      2 C38          1.4850     0.0000     0.0000 c3         1 60H       0.157500
      3 C39          2.0240    -1.2600    -0.6810 c3         1 60H       0.035900
      4 C46          1.4100    -2.4790    -0.0410 ca         1 60H      -0.074800
      5 C51          2.2230    -3.4720     0.4740 ca         1 60H      -0.122250
      6 C50          1.6600    -4.5900     1.0610 ca         1 60H      -0.133000
      7 C49          0.2860    -4.7140     1.1330 ca         1 60H      -0.130000
      8 C48         -0.5260    -3.7210     0.6190 ca         1 60H      -0.133000
      9 C47          0.0360    -2.6000     0.0370 ca         1 60H      -0.122250
     10 C40          1.6700    -1.2300    -2.1450 ca         1 60H      -0.074800
     11 C45          2.6700    -1.2770    -3.0990 ca         1 60H      -0.122250
     12 C44          2.3460    -1.2500    -4.4430 ca         1 60H      -0.133000
     13 C43          1.0210    -1.1760    -4.8330 ca         1 60H      -0.130000
     14 C42          0.0210    -1.1280    -3.8790 ca         1 60H      -0.133000
     15 C41          0.3460    -1.1610    -2.5350 ca         1 60H      -0.122250
     16 C37          1.8390     0.0000     1.5080 c3         1 60H      -0.081400
     17 C36          0.7540     0.9170     2.1180 c3         1 60H      -0.091400
     18 C35         -0.4030     0.9010     1.1020 c3         1 60H       0.139800
     19 H1          -0.3340     0.3670    -0.8690 hn         1 60H       0.351800
     20 H66          1.8650     0.8940    -0.4800 h1         1 60H       0.038700
     21 H67          3.1010    -1.2980    -0.5700 hc         1 60H       0.061700
     22 H77          3.3010    -3.3740     0.4170 ha         1 60H       0.143500
     23 H76          2.2970    -5.3680     1.4640 ha         1 60H       0.126500
     24 H75         -0.1550    -5.5920     1.5900 ha         1 60H       0.125500
     25 H74         -1.6030    -3.8180     0.6780 ha         1 60H       0.126500
     26 H73         -0.6010    -1.8220    -0.3650 ha         1 60H       0.143500
     27 H72          3.7080    -1.3360    -2.7940 ha         1 60H       0.143500
     28 H71          3.1290    -1.2870    -5.1900 ha         1 60H       0.126500
     29 H70          0.7670    -1.1520    -5.8850 ha         1 60H       0.125500
     30 H69         -1.0170    -1.0720    -4.1840 ha         1 60H       0.126500
     31 H68         -0.4370    -1.1240    -1.7870 ha         1 60H       0.143500
     32 H65          2.8260     0.4180     1.6690 hc         1 60H       0.057200
     33 H64          1.7670    -1.0010     1.9170 hc         1 60H       0.057200
     34 H63          0.4220     0.5210     3.0700 hc         1 60H       0.047200
     35 H62          1.1360     1.9230     2.2340 hc         1 60H       0.047200
     36 H60         -0.5700     1.9000     0.7190 h1         1 60H       0.039200
     37 H61         -1.3030     0.5250     1.5750 h1         1 60H       0.039200
@<TRIPOS>BOND
     1     7     6 ar
     2     7     8 ar
     3     6     5 ar
     4     8     9 ar
     5     5     4 ar
     6     9     4 ar
     7     4     3 1
     8     3    10 1
     9     3     2 1
    10    15    10 ar
    11    15    14 ar
    12    10    11 ar
    13     2     1 1
    14     2    16 1
    15     1    18 1
    16    14    13 ar
    17    11    12 ar
    18    13    12 ar
    19    16    17 1
    20    18    17 1
    21     1    19 1
    22     2    20 1
    23     3    21 1
    24     5    22 1
    25     6    23 1
    26     7    24 1
    27     8    25 1
    28     9    26 1
    29    11    27 1
    30    12    28 1
    31    13    29 1
    32    14    30 1
    33    15    31 1
    34    16    32 1
    35    16    33 1
    36    17    34 1
    37    17    35 1
    38    18    36 1
    39    18    37 1
@<TRIPOS>SUBSTRUCTURE
     1 60H         1 TEMP              0 ****  ****    0 ROOT
