@<TRIPOS>MOLECULE
60K
   37    39     1     0     0
SMALL
bcc


@<TRIPOS>ATOM
      1 S            0.0000     0.0000     0.0000 sy         1 60K       0.922200
      2 C1           1.7620     0.0000     0.0000 ca         1 60K      -0.289500
      3 N1          -0.4900     1.5820    -0.0010 nz         1 60K      -0.138500
      4 O1          -0.4010    -0.5450    -1.2500 o          1 60K      -0.507800
      5 C2           2.4520     0.0000     1.1990 ca         1 60K       0.047000
      6 N2           5.9240     0.0010     0.0010 nu         1 60K       0.057300
      7 O2          -0.4010    -0.5440     1.2500 o          1 60K      -0.507800
      8 C3           3.8320     0.0010     1.2030 ca         1 60K      -0.176000
      9 N3           6.5690     0.0010    -1.1160 n2         1 60K      -0.441400
     10 O3           9.0270     0.0200     0.3620 o          1 60K      -0.708500
     11 C4           4.5290     0.0010     0.0000 ca         1 60K       0.120600
     12 N4           9.9010     0.0310    -1.7460 ns         1 60K       0.042900
     13 O4           5.9830     0.0060    -6.6590 o          1 60K      -0.873300
     14 C5           7.6290     0.0180    -1.5870 cc         1 60K       0.423900
     15 O5           7.8480     0.0210    -7.8630 o          1 60K      -0.873300
     16 C6           8.9020     0.0290    -0.8480 c          1 60K       0.446200
     17 C7           9.4200     0.0280    -3.0450 ca         1 60K      -0.137400
     18 C8          10.0780     0.0330    -4.2730 ca         1 60K      -0.151000
     19 C9           9.3590     0.0290    -5.4460 ca         1 60K      -0.001000
     20 C10          7.9610     0.0200    -5.4210 ca         1 60K      -0.104600
     21 C11          7.1970     0.0150    -6.6830 c          1 60K       0.971200
     22 C12          7.2890     0.0130    -4.1960 ca         1 60K       0.003000
     23 C13          8.0160     0.0180    -3.0170 ca         1 60K      -0.255900
     24 C14          3.8320    -0.0000    -1.2020 ca         1 60K      -0.176000
     25 C15          2.4520    -0.0060    -1.1980 ca         1 60K       0.047000
     26 HN4         10.8730     0.0230    -1.5060 hn         1 60K       0.170500
     27 HN1         -0.1400     2.0400     0.8170 hn         1 60K       0.309467
     28 HN1A        -1.4900     1.6220    -0.0020 hn         1 60K       0.309467
     29 H2           1.9080     0.0000     2.1360 ha         1 60K       0.120000
     30 H3           4.3720     0.0010     2.1420 ha         1 60K       0.149500
     31 HN2          6.4240     0.0170     0.8670 hn         1 60K       0.277800
     32 H8          11.1590     0.0400    -4.3510 ha         1 60K       0.100000
     33 H9          10.0000     0.0330    -6.3190 ha         1 60K       0.128000
     34 H12          6.2070     0.0060    -4.1550 ha         1 60K       0.117000
     35 H14          4.3720    -0.0050    -2.1420 ha         1 60K       0.149500
     36 H15          1.9080    -0.0070    -2.1350 ha         1 60K       0.120000
     37 H13         -0.1760     2.0280    -0.8390 hn         1 60K       0.309467
@<TRIPOS>BOND
     1     1     2 1   
     2     1     3 1   
     3     1     4 2   
     4     1     7 2   
     5     2     5 ar  
     6     2    25 ar  
     7     3    27 1   
     8     3    28 1   
     9     3    37 1   
    10     5     8 ar  
    11     5    29 1   
    12     6     9 1   
    13     6    11 1   
    14     6    31 1   
    15     8    11 ar  
    16     8    30 1   
    17     9    14 2   
    18    10    16 2   
    19    11    24 ar  
    20    12    16 1   
    21    12    17 1   
    22    12    26 1   
    23    13    21 1   
    24    14    16 1   
    25    14    23 1   
    26    15    21 1   
    27    17    18 ar  
    28    17    23 ar  
    29    18    19 ar  
    30    18    32 1   
    31    19    20 ar  
    32    19    33 1   
    33    20    21 1   
    34    20    22 ar  
    35    22    23 ar  
    36    22    34 1   
    37    24    25 ar  
    38    24    35 1   
    39    25    36 1   
@<TRIPOS>SUBSTRUCTURE
     1 60K         1 TEMP              0 ****  ****    0 ROOT
