@<TRIPOS>MOLECULE
molecule
   37    39     1     0     0
SMALL
bcc


@<TRIPOS>ATOM
      1 S            0.0000     0.0000     0.0000 sy         1 60K       1.212200
      2 C1           1.7620     0.0000     0.0000 ca         1 60K      -0.394500
      3 N1          -0.4900     1.5820    -0.0010 nz         1 60K      -0.803500
      4 O1          -0.4010    -0.5450    -1.2500 o          1 60K      -0.535300
      5 C2           2.4520     0.0000     1.1990 ca         1 60K       0.001000
      6 N2           5.9240     0.0010     0.0010 nu         1 60K      -0.348700
      7 O2          -0.4010    -0.5440     1.2500 o          1 60K      -0.535300
      8 C3           3.8320     0.0010     1.2030 ca         1 60K      -0.187500
      9 N3           6.5690     0.0010    -1.1160 n2         1 60K      -0.529400
     10 O3           9.0270     0.0200     0.3620 o          1 60K      -0.651500
     11 C4           4.5290     0.0010     0.0000 ca         1 60K       0.297600
     12 N4           9.9010     0.0310    -1.7460 ns         1 60K      -0.441100
     13 O4           5.9830     0.0060    -6.6590 o          1 60K      -0.824800
     14 C5           7.6290     0.0180    -1.5870 cc         1 60K       0.541900
     15 O5           7.8480     0.0210    -7.8630 o          1 60K      -0.824800
     16 C6           8.9020     0.0290    -0.8480 c          1 60K       0.540200
     17 C7           9.4200     0.0280    -3.0450 ca         1 60K       0.036600
     18 C8          10.0780     0.0330    -4.2730 ca         1 60K      -0.188000
     19 C9           9.3590     0.0290    -5.4460 ca         1 60K      -0.028000
     20 C10          7.9610     0.0200    -5.4210 ca         1 60K      -0.113600
     21 C11          7.1970     0.0150    -6.6830 c          1 60K       0.882200
     22 C12          7.2890     0.0130    -4.1960 ca         1 60K      -0.027000
     23 C13          8.0160     0.0180    -3.0170 ca         1 60K      -0.243900
     24 C14          3.8320    -0.0000    -1.2020 ca         1 60K      -0.187500
     25 C15          2.4520    -0.0060    -1.1980 ca         1 60K       0.001000
     26 HN4         10.8730     0.0230    -1.5060 hn         1 60K       0.336500
     27 HN1         -1.4900     1.6220    -0.0030 hn         1 60K       0.486467
     28 HN1A        -0.1400     2.0400     0.8180 hn         1 60K       0.486467
     29 H2           1.9080     0.0000     2.1360 ha         1 60K       0.152500
     30 H3           4.3720     0.0010     2.1420 ha         1 60K       0.180000
     31 HN2          6.4240     0.0170     0.8670 hn         1 60K       0.447800
     32 H8          11.1590     0.0400    -4.3510 ha         1 60K       0.126000
     33 H9          10.0000     0.0330    -6.3190 ha         1 60K       0.163000
     34 H12          6.2070     0.0060    -4.1550 ha         1 60K       0.151000
     35 H14          4.3720    -0.0050    -2.1420 ha         1 60K       0.180000
     36 H15          1.9080    -0.0070    -2.1350 ha         1 60K       0.152500
     37 H13         -0.1750     2.0290    -0.8390 hn         1 60K       0.486467
@<TRIPOS>BOND
     1     3     1 1   
     2     4     1 2   
     3     1     7 2   
     4     1     2 1   
     5     2     5 ar  
     6     2    25 ar  
     7    27     3 1   
     8     3    28 1   
     9    29     5 1   
    10     5     8 ar  
    11    11     6 1   
    12     6     9 1   
    13     6    31 1   
    14    30     8 1   
    15     8    11 ar  
    16     9    14 2   
    17    16    10 2   
    18    24    11 ar  
    19    16    12 1   
    20    17    12 1   
    21    12    26 1   
    22    13    21 1   
    23    14    23 1   
    24    14    16 1   
    25    21    15 1   
    26    23    17 ar  
    27    17    18 ar  
    28    19    18 ar  
    29    18    32 1   
    30    20    19 ar  
    31    19    33 1   
    32    21    20 1   
    33    22    20 ar  
    34    34    22 1   
    35    22    23 ar  
    36    25    24 ar  
    37    24    35 1   
    38    36    25 1   
    39    37     3 1   
@<TRIPOS>SUBSTRUCTURE
     1 60K         1 TEMP              0 ****  ****    0 ROOT
