@<TRIPOS>MOLECULE
60L
   27    28     1     0     0
SMALL
bcc


@<TRIPOS>ATOM
      1 S8           0.0000     0.0000     0.0000 ss         1 60L      -0.272800
      2 C14          1.4010     1.4240    -6.7540 c3         1 60L       0.178100
      3 N13          2.0100     1.3840    -5.4170 n7         1 60L      -0.583200
      4 C2           2.8330    -0.0010    -3.5990 ca         1 60L      -0.091300
      5 C3           4.2110    -0.0000    -3.4690 ca         1 60L      -0.075000
      6 C4           4.7930    -0.0000    -2.2140 ca         1 60L      -0.100000
      7 C5           4.0020     0.0010    -1.0830 ca         1 60L      -0.092000
      8 C6           2.6120     0.0010    -1.2070 ca         1 60L      -0.003000
      9 C1           2.0310     0.0050    -2.4760 ca         1 60L      -0.091000
     10 C7           1.7590     0.0000     0.0000 cc         1 60L       0.078900
     11 C11          2.2080     0.0000     1.2710 cd         1 60L      -0.133000
     12 C10          1.2190    -0.0000     2.2330 cd         1 60L      -0.120000
     13 C9          -0.0310    -0.0000     1.7580 cc         1 60L       0.001900
     14 H1           0.4360     0.9320    -6.7260 h1         1 60L      -0.001967
     15 H2           1.2720     2.4550    -7.0610 h1         1 60L      -0.001967
     16 H3           2.0450     0.9150    -7.4600 h1         1 60L      -0.001967
     17 H4           1.4190     1.8640    -4.7670 hn         1 60L       0.254800
     18 H6           2.8600    -0.5150    -5.6650 h1         1 60L       0.010200
     19 H7           1.2510    -0.5070    -4.9300 h1         1 60L       0.010200
     20 H8           4.8360    -0.0010    -4.3540 ha         1 60L       0.109000
     21 H9           5.8720     0.0000    -2.1190 ha         1 60L       0.104000
     22 H10          4.4590    -0.0010    -0.1010 ha         1 60L       0.109000
     23 H11          0.9520     0.0050    -2.5800 ha         1 60L       0.116000
     24 H12          3.2630     0.0000     1.5180 ha         1 60L       0.126000
     25 H13          1.4390    -0.0000     3.2930 ha         1 60L       0.119000
     26 H14         -0.9280    -0.0010     2.3660 h4         1 60L       0.148000
     27 C12          2.2070    -0.0010    -4.9700 c3         1 60L       0.201100
@<TRIPOS>BOND
     1     1    10 1   
     2     1    13 1   
     3     2     3 1   
     4     2    14 1   
     5     2    15 1   
     6     2    16 1   
     7     3    17 1   
     8     3    27 1   
     9     4     5 ar  
    10     4     9 ar  
    11     4    27 1   
    12     5     6 ar  
    13     5    20 1   
    14     6     7 ar  
    15     6    21 1   
    16     7     8 ar  
    17     7    22 1   
    18     8     9 ar  
    19     8    10 1   
    20     9    23 1   
    21    10    11 2   
    22    11    12 1   
    23    11    24 1   
    24    12    13 2   
    25    12    25 1   
    26    13    26 1   
    27    18    27 1   
    28    19    27 1   
@<TRIPOS>SUBSTRUCTURE
     1 60L         1 TEMP              0 ****  ****    0 ROOT
