@<TRIPOS>MOLECULE
molecule
   19    19     1     0     0
SMALL
bcc


@<TRIPOS>ATOM
      1 C13          0.0000     0.0000     0.0000 ca         1 60M      -0.151000
      2 C14          1.3860     0.0000     0.0000 ca         1 60M      -0.297300
      3 O01          4.2040     0.0010     2.4090 o          1 60M      -0.861800
      4 C02          3.5440     0.0010     1.2340 c          1 60M       0.795100
      5 O03          4.1630     0.0030     0.1910 o          1 60M      -0.861800
      6 C04          2.0630     0.0000     1.2170 ca         1 60M       0.400800
      7 N05          1.3920    -0.0020     2.3640 nb         1 60M      -0.624000
      8 C06          0.0770    -0.0030     2.3920 ca         1 60M       0.505600
      9 C07         -0.6370    -0.0050     3.7190 c3         1 60M      -0.286900
     10 P08         -0.9250     1.7130     4.2560 p5         1 60M       1.046700
     11 O09         -1.8030     1.7140     5.6060 o          1 60M      -0.914500
     12 O10          0.4870     2.4330     4.5340 o          1 60M      -0.914500
     13 O11         -1.6540     2.4460     3.1950 o          1 60M      -0.914500
     14 C12         -0.6610    -0.0020     1.2190 ca         1 60M      -0.267300
     15 H1          -0.5540     0.0000    -0.9310 ha         1 60M       0.067000
     16 H2           1.9360     0.0010    -0.9340 ha         1 60M       0.107000
     17 H4          -1.5870    -0.5150     3.6180 hc         1 60M       0.029700
     18 H5          -0.0290    -0.5160     4.4560 hc         1 60M       0.029700
     19 H8          -1.7440    -0.0020     1.2540 ha         1 60M       0.113000
@<TRIPOS>BOND
     1     1     2 ar  
     2     1    14 ar  
     3     2     6 ar  
     4    14     8 ar  
     5     6     7 ar  
     6     6     4 1   
     7     8     7 ar  
     8     8     9 1   
     9     5     4 1   
    10     4     3 1   
    11     9    10 1   
    12    13    10 1   
    13    10    11 1   
    14    10    12 1   
    15     1    15 1   
    16     2    16 1   
    17     9    17 1   
    18     9    18 1   
    19    14    19 1   
@<TRIPOS>SUBSTRUCTURE
     1 60M         1 TEMP              0 ****  ****    0 ROOT
