@<TRIPOS>MOLECULE
molecule
   20    20     1     0     0
SMALL
bcc


@<TRIPOS>ATOM
      1 C10          0.0000     0.0000     0.0000 ca         1 60N      -0.291300
      2 C11          1.3930     0.0000     0.0000 ca         1 60N       0.411800
      3 C12          2.1270     0.0000    -1.2870 c          1 60N       0.783100
      4 O01          1.5440    -0.6740     4.6050 oh         1 60N      -0.609800
      5 C02          2.2690     0.0010     3.5750 c3         1 60N      -0.048400
      6 P03          3.8500    -0.8600     3.2830 p5         1 60N       1.031700
      7 O04          4.6000    -0.1610     2.2150 o          1 60N      -0.900167
      8 O05          4.7190    -0.8580     4.6380 o          1 60N      -0.900167
      9 O06          3.5600    -2.3770     2.8310 o          1 60N      -0.900167
     10 C07          1.4560     0.0000     2.3060 ca         1 60N       0.484600
     11 C08          0.0710     0.0120     2.3820 ca         1 60N      -0.296300
     12 C09         -0.6730     0.0060     1.2120 ca         1 60N      -0.166000
     13 O13          3.4730     0.0000    -1.2940 o          1 60N      -0.842300
     14 O14          1.5130     0.0010    -2.3350 o          1 60N      -0.842300
     15 N15          2.0680     0.0000     1.1430 nb         1 60N      -0.546000
     16 H1          -0.5500    -0.0050    -0.9340 ha         1 60N       0.109000
     17 H3           2.4640     1.0220     3.8790 h1         1 60N       0.009700
     18 H6          -0.4240     0.0170     3.3450 ha         1 60N       0.097000
     19 H7          -1.7560     0.0100     1.2440 ha         1 60N       0.060000
     20 H2           1.7040    -0.2490     5.4320 ho         1 60N       0.355000
@<TRIPOS>BOND
     1     7     6 1
     2     8     6 1
     3     6     9 1
     4     6     5 1
     5     4     5 1
     6     5    10 1
     7    11    10 ar
     8    11    12 ar
     9    10    15 ar
    10    12     1 ar
    11    15     2 ar
    12     1     2 ar
    13     2     3 1
    14     3    14 1
    15     3    13 1
    16     1    16 1
    17     4    20 1
    18     5    17 1
    19    11    18 1
    20    12    19 1
@<TRIPOS>SUBSTRUCTURE
     1 60N         1 TEMP              0 ****  ****    0 ROOT
