@<TRIPOS>MOLECULE
molecule
   66    71     1     0     0
SMALL
bcc


@<TRIPOS>ATOM
      1 C1           0.0000     0.0000     0.0000 c3         1 60O       0.147400
      2 C3           2.0460     0.0010    -1.2110 ca         1 60O       0.147100
      3 O2           1.4280     0.0000     0.0000 os         1 60O      -0.319900
      4 C12          6.3730    -0.8880    -3.4190 ca         1 60O      -0.384400
      5 C13          7.7040    -0.5110    -3.1750 ca         1 60O       0.516800
      6 C15          8.3990    -2.1650    -4.6170 ca         1 60O       0.732900
      7 C17          6.1240    -1.9500    -4.3000 ca         1 60O       0.772200
      8 C19          8.8630     1.2210    -1.7720 cy         1 60O       0.034000
      9 C20          9.0010     1.1450    -0.2420 cy         1 60O      -0.103400
     10 C21          9.4620     2.6120    -0.2900 cy         1 60O      -0.088700
     11 C22          8.6670     2.7370    -1.6010 cy         1 60O      -0.103400
     12 C23          8.9040     3.4670     0.8500 c3         1 60O       0.158800
     13 C25         10.1900     5.6790     2.3470 cy         1 60O       0.095300
     14 C26          9.5350     6.9910     2.8140 cy         1 60O      -0.117400
     15 C27          8.2240     6.4270     2.2370 cy         1 60O       0.095300
     16 C28         -0.5110     0.0000     1.4420 c3         1 60O       0.147100
     17 C30         -0.5390    -1.3150     3.4480 c3         1 60O       0.139400
     18 C4           1.2900     0.0070    -2.3750 ca         1 60O      -0.227000
     19 C5           1.9130     0.0120    -3.6100 ca         1 60O      -0.093000
     20 C6           3.2910     0.0120    -3.6900 ca         1 60O      -0.166000
     21 C7           4.0580     0.0070    -2.5260 ca         1 60O       0.016200
     22 C8           3.4290     0.0020    -1.2830 ca         1 60O      -0.155000
     23 C9           5.5380     0.0090    -2.6100 cc         1 60O      -0.077400
     24 C10          6.3870     0.8380    -1.9550 cd         1 60O      -0.090100
     25 N11          7.6780     0.5320    -2.2890 na         1 60O      -0.146100
     26 N14          8.6790    -1.1770    -3.7950 nb         1 60O      -0.798000
     27 N16          7.1630    -2.5530    -4.8730 nb         1 60O      -0.826000
     28 N24          9.0810     5.5880     1.3710 nq         1 60O      -0.676600
     29 O29         -0.1330    -1.2210     2.0810 os         1 60O      -0.410600
     30 C31         -2.0670    -1.2430     3.5290 c3         1 60O      -0.121400
     31 C32         -2.5450     0.0620     2.8870 c3         1 60O      -0.078400
     32 C33         -2.0370     0.1240     1.4430 c3         1 60O      -0.111400
     33 H1          -0.3610    -0.8840    -0.5110 h1         1 60O       0.045200
     34 H2          -0.3610     0.8840    -0.5110 h1         1 60O       0.045200
     35 H3           9.2170    -2.6830    -5.1040 h5         1 60O       0.057100
     36 H4           9.7830     0.9740    -2.2880 h1         1 60O       0.111700
     37 H5           9.7810     0.4660     0.0790 hc         1 60O       0.068450
     38 H6           8.0520     1.0150     0.2630 hc         1 60O       0.068450
     39 H7          10.5310     2.7100    -0.4380 hc         1 60O       0.080700
     40 H8           7.6320     3.0150    -1.4440 hc         1 60O       0.068450
     41 H9           9.1830     3.3180    -2.3550 hc         1 60O       0.068450
     42 H10          9.1520     3.0090     1.8000 h1         1 60O       0.038200
     43 H11          7.8280     3.5390     0.7540 h1         1 60O       0.038200
     44 H13         11.1560     5.8280     1.8810 h1         1 60O       0.058200
     45 H14          9.8950     7.8610     2.2780 hc         1 60O       0.059700
     46 H15          9.5140     7.0970     3.8920 hc         1 60O       0.059700
     47 H16          7.6510     7.1620     1.6860 h1         1 60O       0.058200
     48 H17          7.6550     5.8520     2.9580 h1         1 60O       0.058200
     49 H18         -0.0820     0.8360     1.9820 h1         1 60O       0.048700
     50 H19         -0.1100    -0.4930     4.0080 h1         1 60O       0.048700
     51 H20         -0.2000    -2.2570     3.8600 h1         1 60O       0.048700
     52 H21          0.2080     0.0070    -2.3170 ha         1 60O       0.133000
     53 H22          1.3190     0.0160    -4.5150 ha         1 60O       0.131000
     54 H23          3.7770     0.0160    -4.6590 ha         1 60O       0.143000
     55 H24          4.0200    -0.0020    -0.3750 ha         1 60O       0.147000
     56 H25          6.0890     1.6280    -1.2760 h4         1 60O       0.176000
     57 H26          4.5900    -2.7030    -5.4750 hn         1 60O       0.446300
     58 H27          4.1250    -2.2820    -3.8590 hn         1 60O       0.446300
     59 H29         -2.4960    -2.0850     2.9990 hc         1 60O       0.051700
     60 H30         -2.3740    -1.2690     4.5680 hc         1 60O       0.051700
     61 H31         -3.6270     0.0920     2.8920 hc         1 60O       0.045200
     62 H32         -2.1510     0.9040     3.4450 hc         1 60O       0.045200
     63 H33         -2.3230     1.0700     1.0000 hc         1 60O       0.052200
     64 H34         -2.4660    -0.6930     0.8750 hc         1 60O       0.052200
     65 N18          4.8300    -2.3620    -4.5650 nv         1 60O      -1.014500
     66 H12         10.1610     4.8980     3.0970 h1         1 60O       0.058200
@<TRIPOS>BOND
     1    31    30 1   
     2    31    32 1   
     3    30    17 1   
     4    32    16 1   
     5    17    29 1   
     6    16    29 1   
     7    16     1 1   
     8     1     3 1   
     9    18    19 ar  
    10    18     2 ar  
    11     3     2 1   
    12    19    20 ar  
    13     2    22 ar  
    14    65     7 1   
    15    20    21 ar  
    16    22    21 ar  
    17    21    23 1   
    18     7    27 ar  
    19     7     4 ar  
    20    27     6 ar  
    21     4    23 1   
    22     4     5 ar  
    23    23    24 2   
    24     6    26 ar  
    25    24    25 1   
    26     5    26 ar  
    27     5    25 1   
    28    25     8 1   
    29     8     9 1   
    30     8    11 1   
    31     9    10 1   
    32    11    10 1   
    33    10    12 1   
    34    12    28 1   
    35    28    15 1   
    36    28    13 1   
    37    15    14 1   
    38    13    14 1   
    39     1    33 1   
    40     1    34 1   
    41     6    35 1   
    42     8    36 1   
    43     9    37 1   
    44     9    38 1   
    45    10    39 1   
    46    11    40 1   
    47    11    41 1   
    48    12    42 1   
    49    12    43 1   
    50    13    66 1   
    51    13    44 1   
    52    14    45 1   
    53    14    46 1   
    54    15    47 1   
    55    15    48 1   
    56    16    49 1   
    57    17    50 1   
    58    17    51 1   
    59    18    52 1   
    60    19    53 1   
    61    20    54 1   
    62    22    55 1   
    63    24    56 1   
    64    65    57 1   
    65    65    58 1   
    66    30    59 1   
    67    30    60 1   
    68    31    61 1   
    69    31    62 1   
    70    32    63 1   
    71    32    64 1   
@<TRIPOS>SUBSTRUCTURE
     1 60O         1 TEMP              0 ****  ****    0 ROOT
