@<TRIPOS>MOLECULE
molecule
   14    14     1     0     0
SMALL
bcc


@<TRIPOS>ATOM
      1 S01          0.0000     0.0000     0.0000 ss         1 60P      -0.105800
      2 C02          1.7580     0.0000     0.0000 cc         1 60P      -0.014700
      3 C03          2.2050     0.0000     1.2920 cc         1 60P      -0.137300
      4 C04          1.1900     0.0000     2.2190 cc         1 60P      -0.158000
      5 C05         -0.0470     0.0000     1.7050 cd         1 60P      -0.180100
      6 C06          3.6650    -0.0000     1.6640 c3         1 60P      -0.001800
      7 C07          2.6080    -0.0000    -1.1920 c          1 60P       0.904200
      8 O08          3.8180    -0.0000    -1.0770 o          1 60P      -0.830800
      9 O09          2.0470    -0.0000    -2.4190 o          1 60P      -0.830800
     10 H041         1.3760    -0.0000     3.2860 ha         1 60P       0.115000
     11 H051        -0.9560    -0.0000     2.2940 h4         1 60P       0.138000
     12 H061         3.7630    -0.0000     2.7430 hc         1 60P       0.034033
     13 H062         4.1410     0.8850     1.2590 hc         1 60P       0.034033
     14 H063         4.1410    -0.8850     1.2590 hc         1 60P       0.034033
@<TRIPOS>BOND
     1     6     3 1
     2     4     3 1
     3     4     5 2
     4     3     2 2
     5     5     1 1
     6     8     7 1
     7     2     7 1
     8     2     1 1
     9     7     9 1
    10     4    10 1
    11     5    11 1
    12     6    12 1
    13     6    13 1
    14     6    14 1
@<TRIPOS>SUBSTRUCTURE
     1 60P         1 TEMP              0 ****  ****    0 ROOT
