@<TRIPOS>MOLECULE
molecule
   22    23     1     0     0
SMALL
bcc


@<TRIPOS>ATOM
      1 C13          0.0000     0.0000     0.0000 cc         1 60Q      -0.233500
      2 C01          1.3380    -1.0100     5.5570 ca         1 60Q      -0.148000
      3 C02          1.3390    -1.0140     4.1770 ca         1 60Q      -0.159000
      4 C03          0.7050     0.0050     3.4790 ca         1 60Q       0.009800
      5 C04          0.0640     1.0350     4.1830 ca         1 60Q      -0.102600
      6 C05          0.0720     1.0250     5.5800 ca         1 60Q      -0.086000
      7 C06          0.7020     0.0030     6.2560 ca         1 60Q      -0.163000
      8 C07         -0.6130     2.1230     3.4520 c          1 60Q       0.873200
      9 O08         -1.3340     3.0390     4.1270 o          1 60Q      -0.821300
     10 O09         -0.5200     2.1920     2.2430 o          1 60Q      -0.821300
     11 N10          0.7040     0.0030     2.0830 na         1 60Q       0.044800
     12 C11          1.8150     0.0000     1.2850 cc         1 60Q      -0.105300
     13 C12          1.4100     0.0000     0.0000 cd         1 60Q      -0.233500
     14 C14         -0.4050     0.0050     1.2850 cd         1 60Q      -0.105300
     15 H131        -0.6400    -0.0000    -0.8740 ha         1 60Q       0.123500
     16 H051        -0.3720     1.8460     6.1300 ha         1 60Q       0.159000
     17 H061         0.7000    -0.0080     7.3400 ha         1 60Q       0.108000
     18 H111         2.8430    -0.0000     1.6280 h4         1 60Q       0.156000
     19 H121         2.0510    -0.0030    -0.8740 ha         1 60Q       0.123500
     20 H141        -1.4330     0.0070     1.6270 h4         1 60Q       0.156000
     21 H011         1.8380    -1.8050     6.0970 ha         1 60Q       0.106000
     22 H021         1.8140    -1.8240     3.6380 ha         1 60Q       0.120000
@<TRIPOS>BOND
     1     6     7 ar
     2     6     5 ar
     3     7     2 ar
     4    10     8 1
     5     8     5 1
     6     8     9 1
     7     5     4 ar
     8     2     3 ar
     9     4     3 ar
    10     4    11 1
    11    11    12 1
    12    11    14 1
    13    12    13 2
    14    14     1 2
    15    13     1 1
    16     1    15 1
    17     2    21 1
    18     3    22 1
    19     6    16 1
    20     7    17 1
    21    12    18 1
    22    13    19 1
    23    14    20 1
@<TRIPOS>SUBSTRUCTURE
     1 60Q         1 TEMP              0 ****  ****    0 ROOT
