@<TRIPOS>MOLECULE
molecule
   44    48     1     0     0
SMALL
bcc


@<TRIPOS>ATOM
      1 C10          0.0000     0.0000     0.0000 ca         1 60R      -0.076000
      2 C13          1.4030    -0.0000     2.4080 ca         1 60R      -0.186000
      3 C14          0.0160    -0.0100     2.4190 ca         1 60R       0.159100
      4 C15         -1.3360    -1.2030     3.9920 c3         1 60R       0.208700
      5 C16         -2.5520    -1.5600     3.1770 ca         1 60R      -0.115300
      6 C17         -2.9210    -1.0010     1.9660 ca         1 60R      -0.036800
      7 C18         -4.0880    -1.4410     1.3190 ca         1 60R      -0.107000
      8 C19         -4.8740    -2.4220     1.8780 ca         1 60R      -0.128000
      9 C22         -4.8030     0.9540     2.1920 ca         1 60R      -0.100000
     10 C23         -6.1540     1.1240     2.4130 ca         1 60R      -0.124000
     11 C12          2.0780     0.0000     1.1990 ca         1 60R       0.148900
     12 C11          1.3830     0.0000     0.0000 ca         1 60R      -0.178000
     13 C9          -0.6770     0.0050     1.2140 ca         1 60R      -0.097800
     14 O3          -0.6680    -0.0390     3.5810 os         1 60R      -0.342900
     15 C21         -3.3630    -2.5540     3.7280 ca         1 60R      -0.135000
     16 C20         -4.5060    -2.9800     3.0900 ca         1 60R      -0.119000
     17 C8          -2.1510     0.0610     1.2840 ce         1 60R      -0.000400
     18 C7          -2.8090     1.1010     0.7150 cf         1 60R      -0.094200
     19 C6          -4.2490     1.2770     0.9480 ca         1 60R      -0.061800
     20 C5          -5.0710     1.7660    -0.0740 ca         1 60R      -0.132000
     21 C4          -6.4240     1.9290     0.1550 ca         1 60R      -0.007400
     22 N           -7.2650     2.4170    -0.8560 ns         1 60R      -0.463100
     23 C1          -8.4970     2.8610    -0.5240 c          1 60R       0.667500
     24 O1          -9.2520     3.2600    -1.3850 o          1 60R      -0.616500
     25 C3          -6.9670     1.6150     1.4020 ca         1 60R       0.093100
     26 O2          -8.3010     1.7820     1.6100 os         1 60R      -0.321900
     27 C2          -8.9290     2.8590     0.9200 c3         1 60R       0.074400
     28 H1          -0.5490     0.0000    -0.9340 ha         1 60R       0.145000
     29 H2           1.9510     0.1200     3.3350 ha         1 60R       0.159000
     30 H3          -0.6370    -2.0280     3.9180 h1         1 60R       0.063200
     31 H4          -1.6580    -1.0540     5.0160 h1         1 60R       0.063200
     32 H5          -4.3730    -1.0020     0.3700 ha         1 60R       0.143000
     33 H6          -5.7730    -2.7550     1.3740 ha         1 60R       0.137000
     34 H7          -4.1600     0.6320     3.0030 ha         1 60R       0.157000
     35 H8          -6.5810     0.8740     3.3760 ha         1 60R       0.152000
     36 H9           1.9240     0.0000    -0.9390 ha         1 60R       0.149000
     37 H10         -3.0870    -2.9990     4.6760 ha         1 60R       0.129000
     38 H11         -5.1190    -3.7530     3.5370 ha         1 60R       0.133000
     39 H12         -2.2690     1.8140     0.1040 ha         1 60R       0.143000
     40 H13         -4.6480     2.0180    -1.0390 ha         1 60R       0.140000
     41 H14         -7.0260     2.2760    -1.8170 hn         1 60R       0.341500
     42 H15        -10.0040     2.7390     0.9720 h1         1 60R       0.087200
     43 H16         -8.6420     3.7960     1.3810 h1         1 60R       0.087200
     44 F            3.4290     0.0110     1.1880 f          1 60R      -0.137900
@<TRIPOS>BOND
     1    24    23 2
     2    26    27 1
     3    26    25 1
     4    23    22 1
     5    23    27 1
     6    22    21 1
     7    25    21 ar
     8    25    10 ar
     9    21    20 ar
    10    10     9 ar
    11    20    19 ar
    12     9    19 ar
    13    19    18 1
    14    18    17 2
    15    17    13 1
    16    17     6 1
    17     4    14 1
    18     4     5 1
    19    13     1 ar
    20    13     3 ar
    21     1    12 ar
    22    12    11 ar
    23     3    14 1
    24     3     2 ar
    25     6     5 ar
    26     6     7 ar
    27     5    15 ar
    28    11     2 ar
    29    11    44 1
    30     7     8 ar
    31    15    16 ar
    32     8    16 ar
    33     1    28 1
    34     2    29 1
    35     4    30 1
    36     4    31 1
    37     7    32 1
    38     8    33 1
    39     9    34 1
    40    10    35 1
    41    12    36 1
    42    15    37 1
    43    16    38 1
    44    18    39 1
    45    20    40 1
    46    22    41 1
    47    27    42 1
    48    27    43 1
@<TRIPOS>SUBSTRUCTURE
     1 60R         1 TEMP              0 ****  ****    0 ROOT
