@<TRIPOS>MOLECULE
60S
   48    51     1     0     0
SMALL
bcc


@<TRIPOS>ATOM
      1 C1           0.0000     0.0000     0.0000 c3         1 60S       0.220500
      2 C2           1.5430     0.0000     0.0000 c3         1 60S      -0.150700
      3 C4           0.0180     0.5920     2.3670 c2         1 60S       0.398800
      4 C5           2.0910     0.0000     1.3910 c          1 60S       0.630500
      5 C7           1.0550     1.9030    -2.8340 ca         1 60S       0.737900
      6 C10          0.7160     1.3150    -5.0360 ca         1 60S       0.552200
      7 C11         -0.5720    -1.3930     0.0720 cc         1 60S      -0.030400
      8 N12          1.9850     2.7860    -3.1650 nb         1 60S      -0.668000
      9 C14          1.6890     2.2430    -5.4190 ca         1 60S      -0.244700
     10 C15          1.9130     1.3090    -0.7190 c3         1 60S       0.173800
     11 C18         -1.7440    -1.7030     0.6340 cd         1 60S      -0.110000
     12 C19         -1.1400    -3.8080    -0.0380 cc         1 60S       0.116900
     13 C24         -2.0800    -3.0360     0.5860 cd         1 60S      -0.080000
     14 N3           1.3670     0.3000     2.4780 n          1 60S      -0.049300
     15 N6          -0.4760     0.8500     1.1020 nu         1 60S      -0.506200
     16 N8           0.4310     1.1740    -3.7460 nb         1 60S      -0.734000
     17 N9           0.7340     1.7310    -1.4970 nh         1 60S      -0.456300
     18 C13         -0.3270     0.7150    -1.3340 c3         1 60S       0.121800
     19 S16          0.1890    -2.7830    -0.5620 ss         1 60S      -0.170800
     20 C17          2.3200     2.9780    -4.4330 ca         1 60S       0.458600
     21 N20          0.0600     0.5510    -5.9900 nu         1 60S      -0.482900
     22 N21         -1.2730    -6.3500    -0.3770 n1         1 60S      -0.360800
     23 N22         -0.7550     0.6250     3.4150 n2         1 60S      -0.762100
     24 C23         -1.2240    -5.2240    -0.2320 cg         1 60S       0.256800
     25 O25          3.2580    -0.2890     1.5460 o          1 60S      -0.659500
     26 F26          2.0090     2.4140    -6.7200 f          1 60S      -0.116900
     27 C27          2.0080     0.3210     3.7950 c3         1 60S       0.059300
     28 C28          3.3790     3.9880    -4.7960 c3         1 60S      -0.043400
     29 C29         -0.9580    -0.4190    -5.5780 c3         1 60S       0.198100
     30 H1           1.9190    -0.8520    -0.5530 hc         1 60S       0.079700
     31 H2           2.7500     1.1380    -1.3850 h1         1 60S       0.039200
     32 H3           2.1640     2.0700     0.0090 h1         1 60S       0.039200
     33 H4          -2.3820    -0.9580     1.0940 ha         1 60S       0.142000
     34 H5          -2.9990    -3.4340     1.0010 ha         1 60S       0.134000
     35 H6          -0.2980     0.0080    -2.1540 h1         1 60S       0.054700
     36 H7          -1.2980     1.1920    -1.2750 h1         1 60S       0.054700
     37 H8           0.2710     0.6730    -6.9610 hn         1 60S       0.304800
     38 H9          -0.3770     0.4360     4.3220 hn         1 60S       0.338400
     39 H11          3.0850     0.3120     3.6730 h1         1 60S       0.026700
     40 H12          1.7020    -0.5520     4.3590 h1         1 60S       0.026700
     41 H13          1.7120     1.2170     4.3270 h1         1 60S       0.026700
     42 H14          4.2250     3.4790    -5.2430 hc         1 60S       0.022700
     43 H15          2.9720     4.7000    -5.5030 hc         1 60S       0.022700
     44 H16          3.7020     4.5090    -3.9030 hc         1 60S       0.022700
     45 H17         -1.7400     0.0900    -5.0280 h1         1 60S       0.011700
     46 H18         -1.3820    -0.8920    -6.4560 h1         1 60S       0.011700
     47 H19         -0.5030    -1.1730    -4.9470 h1         1 60S       0.011700
     48 H20         -1.1340     1.5870     0.9420 hn         1 60S       0.327800
@<TRIPOS>BOND
     1     1     2 1   
     2     1     7 1   
     3     1    15 1   
     4     1    18 1   
     5     2     4 1   
     6     2    10 1   
     7     2    30 1   
     8     3    14 1   
     9     3    15 1   
    10     3    23 2   
    11     4    14 1   
    12     4    25 2   
    13     5     8 ar  
    14     5    16 ar  
    15     5    17 1   
    16     6     9 ar  
    17     6    16 ar  
    18     6    21 1   
    19     7    11 2   
    20     7    19 1   
    21     8    20 ar  
    22     9    20 ar  
    23     9    26 1   
    24    10    17 1   
    25    10    31 1   
    26    10    32 1   
    27    11    13 1   
    28    11    33 1   
    29    12    13 2   
    30    12    19 1   
    31    12    24 1   
    32    13    34 1   
    33    14    27 1   
    34    15    48 1   
    35    17    18 1   
    36    18    35 1   
    37    18    36 1   
    38    20    28 1   
    39    21    29 1   
    40    21    37 1   
    41    22    24 3   
    42    23    38 1   
    43    27    39 1   
    44    27    40 1   
    45    27    41 1   
    46    28    42 1   
    47    28    43 1   
    48    28    44 1   
    49    29    45 1   
    50    29    46 1   
    51    29    47 1   
@<TRIPOS>SUBSTRUCTURE
     1 60S         1 TEMP              0 ****  ****    0 ROOT
