@<TRIPOS>MOLECULE
molecule
   48    51     1     0     0
SMALL
bcc


@<TRIPOS>ATOM
      1 C1           0.0000     0.0000     0.0000 c3         1 60S       0.311500
      2 C2           1.5430     0.0000     0.0000 c3         1 60S      -0.172700
      3 C4           0.0180     0.5920     2.3670 c2         1 60S       0.699800
      4 C5           2.0910     0.0000     1.3910 c          1 60S       0.714500
      5 C7           1.0550     1.9030    -2.8340 ca         1 60S       0.889900
      6 C10          0.7160     1.3150    -5.0360 ca         1 60S       0.729200
      7 C11         -0.5720    -1.3930     0.0720 cc         1 60S      -0.079400
      8 N12          1.9850     2.7860    -3.1650 nb         1 60S      -0.769000
      9 C14          1.6890     2.2430    -5.4190 ca         1 60S      -0.214700
     10 C15          1.9130     1.3090    -0.7190 c3         1 60S       0.191800
     11 C18         -1.7440    -1.7030     0.6340 cc         1 60S      -0.139000
     12 C19         -1.1400    -3.8080    -0.0380 cd         1 60S       0.008900
     13 C24         -2.0800    -3.0360     0.5860 cc         1 60S      -0.103000
     14 N3           1.3670     0.3000     2.4780 n          1 60S      -0.377300
     15 N6          -0.4760     0.8500     1.1020 nu         1 60S      -0.948200
     16 N8           0.4310     1.1740    -3.7460 nb         1 60S      -0.844000
     17 N9           0.7340     1.7310    -1.4970 nh         1 60S      -0.669300
     18 C13         -0.3270     0.7150    -1.3340 c3         1 60S       0.158800
     19 S16          0.1890    -2.7830    -0.5620 ss         1 60S      -0.014800
     20 C17          2.3200     2.9780    -4.4330 ca         1 60S       0.491600
     21 N20          0.0600     0.5510    -5.9900 nu         1 60S      -0.904900
     22 N21         -1.3080    -6.3480    -0.3760 n1         1 60S      -0.347800
     23 N22         -0.7550     0.6250     3.4150 n2         1 60S      -0.888100
     24 C23         -1.2240    -5.2240    -0.2320 ch         1 60S       0.265800
     25 O25          3.2580    -0.2890     1.5460 o          1 60S      -0.618500
     26 F26          2.0090     2.4140    -6.7200 f          1 60S      -0.137900
     27 C27          2.0080     0.3210     3.7950 c3         1 60S       0.106300
     28 C28          3.3790     3.9880    -4.7960 c3         1 60S      -0.142400
     29 C29         -0.9580    -0.4190    -5.5780 c3         1 60S       0.230100
     30 H1           1.9190    -0.8520    -0.5530 hc         1 60S       0.097700
     31 H2           2.7500     1.1380    -1.3850 h1         1 60S       0.078200
     32 H3           2.1640     2.0700     0.0090 h1         1 60S       0.078200
     33 H4          -2.3820    -0.9580     1.0940 ha         1 60S       0.158000
     34 H5          -2.9990    -3.4340     1.0010 ha         1 60S       0.164000
     35 H6          -1.2980     1.1920    -1.2750 h1         1 60S       0.083200
     36 H7          -0.2980     0.0080    -2.1540 h1         1 60S       0.083200
     37 H8           0.2920     0.6510    -6.9580 hn         1 60S       0.460800
     38 H9          -1.7280     0.8390     3.3130 hn         1 60S       0.412400
     39 H11          1.8500    -0.6310     4.2880 h1         1 60S       0.059367
     40 H12          1.5770     1.1140     4.3940 h1         1 60S       0.059367
     41 H13          3.0710     0.4940     3.6770 h1         1 60S       0.059367
     42 H14          3.6610     4.5490    -3.9130 hc         1 60S       0.063033
     43 H15          4.2480     3.4740    -5.1900 hc         1 60S       0.063033
     44 H16          2.9900     4.6660    -5.5460 hc         1 60S       0.063033
     45 H17         -1.3860    -0.8880    -6.4560 h1         1 60S       0.042367
     46 H18         -0.5020    -1.1760    -4.9510 h1         1 60S       0.042367
     47 H19         -1.7370     0.0890    -5.0230 h1         1 60S       0.042367
     48 H20         -1.1330     1.5880     0.9420 hn         1 60S       0.466800
@<TRIPOS>BOND
     1    13    11 1   
     2    13    12 2   
     3    11     7 2   
     4    22    24 3   
     5    24    12 1   
     6    12    19 1   
     7    28    20 1   
     8     7    19 1   
     9     7     1 1   
    10     8    20 ar  
    11     8     5 ar  
    12    20     9 ar  
    13    18     1 1   
    14    18    17 1   
    15     1     2 1   
    16     1    15 1   
    17     9    26 1   
    18     9     6 ar  
    19     5    17 1   
    20     5    16 ar  
    21    17    10 1   
    22     2    10 1   
    23     2     4 1   
    24     6    16 ar  
    25     6    21 1   
    26    15     3 1   
    27     4    25 2   
    28     4    14 1   
    29    21    29 1   
    30     3    14 1   
    31     3    23 2   
    32    14    27 1   
    33     2    30 1   
    34    10    31 1   
    35    10    32 1   
    36    11    33 1   
    37    13    34 1   
    38    18    35 1   
    39    18    36 1   
    40    21    37 1   
    41    23    38 1   
    42    27    39 1   
    43    27    40 1   
    44    27    41 1   
    45    28    42 1   
    46    28    43 1   
    47    28    44 1   
    48    29    45 1   
    49    29    46 1   
    50    29    47 1   
    51    15    48 1   
@<TRIPOS>SUBSTRUCTURE
     1 60S         1 TEMP              0 ****  ****    0 ROOT
