@<TRIPOS>MOLECULE
60T
   49    52     1     0     0
SMALL
bcc


@<TRIPOS>ATOM
      1 C1           0.0000     0.0000     0.0000 ca         1 60T       0.464600
      2 C2           2.0050     0.0000     1.1360 ca         1 60T       0.772900
      3 F2           6.1790    -3.3220     3.4230 f          1 60T      -0.120900
      4 C3           0.0690    -0.0110     2.3860 ca         1 60T       0.687600
      5 C4           0.2840    -0.0010     4.7510 c3         1 60T       0.251700
      6 C5           3.5940    -0.0050     2.9670 c3         1 60T       0.144800
      7 C6           4.8920    -0.8450     3.0370 c3         1 60T       0.191500
      8 C7           7.1920    -0.6170     2.2550 c2         1 60T       0.395800
      9 N1           1.3950    -0.0000     2.3120 nb         1 60T      -0.859000
     10 N2           3.2120    -0.0040     1.5400 nh         1 60T      -0.404300
     11 N3           6.0120     0.0070     2.6120 nu         1 60T      -0.573200
     12 C10          4.6440    -1.9200     1.9570 c3         1 60T      -0.139700
     13 C17          5.7480    -2.6700     4.5250 ca         1 60T       0.150400
     14 C16          5.9470    -3.2220     5.7800 ca         1 60T      -0.140000
     15 C15          5.5060    -2.5560     6.9060 ca         1 60T      -0.038000
     16 C14          4.8640    -1.3370     6.7840 ca         1 60T      -0.140000
     17 C13          4.6640    -0.7830     5.5310 ca         1 60T       0.150400
     18 F1           4.0370     0.4070     5.4110 f          1 60T      -0.120900
     19 C12          5.1110    -1.4470     4.4010 ca         1 60T      -0.170300
     20 C9           5.9270    -2.4070     1.3640 c          1 60T       0.624500
     21 O1           5.9050    -3.4380     0.7260 o          1 60T      -0.657500
     22 N5           7.1000    -1.7720     1.4980 n          1 60T       0.018700
     23 C11          3.8100    -1.1850     0.8920 c3         1 60T       0.132800
     24 N            1.3250     0.0000     0.0000 nb         1 60T      -0.650000
     25 C18         -0.7620     0.0000    -1.3010 c3         1 60T      -0.042400
     26 C           -0.6760    -0.0040     1.2060 ca         1 60T      -0.216700
     27 F           -2.0270    -0.0040     1.2420 f          1 60T      -0.108900
     28 O           -0.5520    -0.0110     3.5920 os         1 60T      -0.408100
     29 H1           0.8790    -0.9060     4.7760 h1         1 60T       0.003367
     30 H2          -0.3330     0.0500     5.6400 h1         1 60T       0.003367
     31 H3           0.9390     0.8610     4.7170 h1         1 60T       0.003367
     32 H4           3.8370     1.0120     3.2500 h1         1 60T       0.068700
     33 H5           2.8250    -0.5310     3.5200 h1         1 60T       0.068700
     34 H6           8.3930     0.7010     3.1630 hn         1 60T       0.334400
     35 H8           7.9960    -2.9010    -0.0180 h1         1 60T       0.026033
     36 H9           8.9200    -1.4870     0.5080 h1         1 60T       0.026033
     37 H10          8.8450    -2.9260     1.5340 h1         1 60T       0.026033
     38 H11          4.0810    -2.7480     2.3710 hc         1 60T       0.075700
     39 H12          6.4500    -4.1770     5.8770 ha         1 60T       0.127500
     40 H13          5.6630    -2.9890     7.8870 ha         1 60T       0.114000
     41 H14          4.5190    -0.8150     7.6690 ha         1 60T       0.127500
     42 H15          4.5930    -0.8730     0.2120 h1         1 60T       0.043200
     43 H16          3.0460    -1.7360     0.3570 h1         1 60T       0.043200
     44 H17         -1.3480    -0.9080    -1.3770 hc         1 60T       0.024700
     45 H18         -1.4220     0.8590    -1.3330 hc         1 60T       0.024700
     46 H19         -0.0640     0.0500    -2.1280 hc         1 60T       0.024700
     47 H20          5.9230     1.0040     2.5830 hn         1 60T       0.325800
     48 N4           8.3480    -0.1360     2.6160 n2         1 60T      -0.757100
     49 C8           8.2930    -2.3060     0.8380 c3         1 60T       0.069300
@<TRIPOS>BOND
     1     1    24 ar  
     2     1    25 1   
     3     1    26 ar  
     4     2     9 ar  
     5     2    10 1   
     6     2    24 ar  
     7     3    13 1   
     8     4     9 ar  
     9     4    26 ar  
    10     4    28 1   
    11     5    28 1   
    12     5    29 1   
    13     5    30 1   
    14     5    31 1   
    15     6     7 1   
    16     6    10 1   
    17     6    32 1   
    18     6    33 1   
    19     7    11 1   
    20     7    12 1   
    21     7    19 1   
    22     8    11 1   
    23     8    22 1   
    24     8    48 2   
    25    10    23 1   
    26    11    47 1   
    27    12    20 1   
    28    12    23 1   
    29    12    38 1   
    30    13    14 ar  
    31    13    19 ar  
    32    14    15 ar  
    33    14    39 1   
    34    15    16 ar  
    35    15    40 1   
    36    16    17 ar  
    37    16    41 1   
    38    17    18 1   
    39    17    19 ar  
    40    20    21 2   
    41    20    22 1   
    42    22    49 1   
    43    23    42 1   
    44    23    43 1   
    45    25    44 1   
    46    25    45 1   
    47    25    46 1   
    48    26    27 1   
    49    34    48 1   
    50    35    49 1   
    51    36    49 1   
    52    37    49 1   
@<TRIPOS>SUBSTRUCTURE
     1 60T         1 TEMP              0 ****  ****    0 ROOT
