@<TRIPOS>MOLECULE
molecule
   49    52     1     0     0
SMALL
bcc


@<TRIPOS>ATOM
      1 C1           0.0000     0.0000     0.0000 ca         1 60T       0.499600
      2 C2           2.0050     0.0000     1.1360 ca         1 60T       0.941900
      3 F2           6.1790    -3.3220     3.4230 f          1 60T      -0.126900
      4 C3           0.0690    -0.0110     2.3860 ca         1 60T       0.680600
      5 C4           0.2840    -0.0010     4.7510 c3         1 60T       0.135700
      6 C5           3.5940    -0.0050     2.9670 c3         1 60T       0.233800
      7 C6           4.8920    -0.8450     3.0370 c3         1 60T       0.282500
      8 C7           7.1920    -0.6170     2.2550 c2         1 60T       0.696800
      9 N1           1.3950    -0.0000     2.3120 nb         1 60T      -0.908000
     10 N2           3.2120    -0.0040     1.5400 nh         1 60T      -0.703300
     11 N3           6.0120     0.0070     2.6120 nu         1 60T      -0.892200
     12 C10          4.6440    -1.9200     1.9570 c3         1 60T      -0.161700
     13 C17          5.7480    -2.6700     4.5250 ca         1 60T       0.174400
     14 C16          5.9470    -3.2220     5.7800 ca         1 60T      -0.177000
     15 C15          5.5060    -2.5560     6.9060 ca         1 60T      -0.069000
     16 C14          4.8640    -1.3370     6.7840 ca         1 60T      -0.177000
     17 C13          4.6640    -0.7830     5.5310 ca         1 60T       0.174400
     18 F1           4.0370     0.4070     5.4110 f          1 60T      -0.126900
     19 C12          5.1110    -1.4470     4.4010 ca         1 60T      -0.175300
     20 C9           5.9270    -2.4070     1.3640 c          1 60T       0.721500
     21 O1           5.9050    -3.4380     0.7260 o          1 60T      -0.630500
     22 N5           7.1000    -1.7720     1.4980 n          1 60T      -0.433300
     23 C11          3.8100    -1.1850     0.8920 c3         1 60T       0.167800
     24 N            1.3250     0.0000     0.0000 nb         1 60T      -0.762000
     25 C18         -0.7620     0.0000    -1.3010 c3         1 60T      -0.140400
     26 C           -0.6760    -0.0040     1.2060 ca         1 60T      -0.178700
     27 F           -2.0270    -0.0040     1.2420 f          1 60T      -0.123900
     28 O           -0.5520    -0.0110     3.5920 os         1 60T      -0.423100
     29 H1           0.9400     0.8610     4.7170 h1         1 60T       0.048367
     30 H2          -0.3330     0.0500     5.6400 h1         1 60T       0.048367
     31 H3           0.8790    -0.9060     4.7760 h1         1 60T       0.048367
     32 H4           3.8370     1.0120     3.2500 h1         1 60T       0.093200
     33 H5           2.8250    -0.5310     3.5200 h1         1 60T       0.093200
     34 H6           9.1900    -0.6030     2.3460 hn         1 60T       0.410400
     35 H8           8.9400    -2.7640     1.5760 h1         1 60T       0.056033
     36 H9           7.9990    -3.0480     0.1050 h1         1 60T       0.056033
     37 H10          8.8230    -1.5010     0.3430 h1         1 60T       0.056033
     38 H11          4.0810    -2.7480     2.3710 hc         1 60T       0.101700
     39 H12          6.4500    -4.1770     5.8770 ha         1 60T       0.155000
     40 H13          5.6630    -2.9890     7.8870 ha         1 60T       0.148000
     41 H14          4.5190    -0.8150     7.6690 ha         1 60T       0.155000
     42 H15          4.5930    -0.8730     0.2120 h1         1 60T       0.076700
     43 H16          3.0460    -1.7360     0.3570 h1         1 60T       0.076700
     44 H17         -1.4270     0.8550    -1.3300 hc         1 60T       0.065033
     45 H18         -0.0650     0.0570    -2.1280 hc         1 60T       0.065033
     46 H19         -1.3420    -0.9120    -1.3800 hc         1 60T       0.065033
     47 H20          5.9230     1.0040     2.5830 hn         1 60T       0.479800
     48 N4           8.3480    -0.1360     2.6160 n2         1 60T      -0.887100
     49 C8           8.2930    -2.3060     0.8380 c3         1 60T       0.089300
@<TRIPOS>BOND
     1     5    28 1
     2    16    15 ar
     3    16    17 ar
     4    28     4 1
     5    18    17 1
     6    15    14 ar
     7    17    19 ar
     8     4     9 ar
     9     4    26 ar
    10    27    26 1
    11     9     2 ar
    12    26     1 ar
    13    14    13 ar
    14     6    10 1
    15     6     7 1
    16    19    13 ar
    17    19     7 1
    18     2    10 1
    19     2    24 ar
    20    13     3 1
    21     1    24 ar
    22     1    25 1
    23    10    23 1
    24     7    12 1
    25     7    11 1
    26    12    23 1
    27    12    20 1
    28    11     8 1
    29    20    21 2
    30    20    22 1
    31     8    22 1
    32     8    48 2
    33    22    49 1
    34     5    29 1
    35     5    30 1
    36     5    31 1
    37     6    32 1
    38     6    33 1
    39    48    34 1
    40    49    35 1
    41    49    36 1
    42    49    37 1
    43    12    38 1
    44    14    39 1
    45    15    40 1
    46    16    41 1
    47    23    42 1
    48    23    43 1
    49    25    44 1
    50    25    45 1
    51    25    46 1
    52    11    47 1
@<TRIPOS>SUBSTRUCTURE
     1 60T         1 TEMP              0 ****  ****    0 ROOT
