@<TRIPOS>MOLECULE
molecule
   50    53     1     0     0
SMALL
bcc


@<TRIPOS>ATOM
      1 C10          0.0000     0.0000     0.0000 cc         1 60U      -0.112400
      2 C11         -5.3460     1.8490    -3.6200 ca         1 60U       0.586600
      3 C13         -1.2230     1.4240    -1.7070 c3         1 60U      -0.036200
      4 C14         -3.1430     0.0320    -2.0500 c3         1 60U       0.031800
      5 C15         -5.8390     2.6800    -2.6470 ca         1 60U      -0.016700
      6 C17         -5.1680     2.9500    -1.7360 ca         1 60U       0.368600
      7 C18          1.3360     0.0000     0.0000 cc         1 60U      -0.165000
      8 N3          -1.2290    -2.7650    -1.8260 n          1 60U      -0.388300
      9 C19          1.0130     0.0070     2.2670 cd         1 60U       0.021900
     10 C22          1.3320     0.0100     3.6630 ch         1 60U       0.262800
     11 C7          -3.2860     1.6310    -2.4930 ca         1 60U       0.832900
     12 C1          -0.8550    -0.0060    -1.2420 c3         1 60U       0.246500
     13 C2          -2.2430    -0.6350    -0.9950 c3         1 60U      -0.190700
     14 C4          -0.1070    -2.0740    -2.2990 c2         1 60U       0.692800
     15 C5          -2.2160    -2.1160    -1.1940 c          1 60U       0.626500
     16 N6          -0.1980    -0.6960    -2.3610 nu         1 60U      -0.898200
     17 N8          -4.0480     1.1720    -3.7700 nb         1 60U      -0.678000
     18 N9          -2.4690     1.2690    -2.4850 nh         1 60U      -0.429300
     19 N12         -3.6210     2.4390    -1.4430 nb         1 60U      -0.889000
     20 S16         -0.6120    -0.0010     1.5930 ss         1 60U       0.010200
     21 N20          1.5670     0.0070     4.7750 n1         1 60U      -0.339800
     22 N21          0.4770    -2.4400    -3.2340 n2         1 60U      -0.898100
     23 C23          1.9200     0.0000     1.2460 cc         1 60U      -0.100000
     24 O24         -3.4700    -2.6510    -0.4500 o          1 60U      -0.749500
     25 O27         -6.4020     0.7430    -3.7340 os         1 60U      -0.576100
     26 C28         -5.9440     3.2690    -0.4370 c3         1 60U      -0.158400
     27 C29         -7.7670     1.3520    -4.6910 c3         1 60U       0.170400
     28 C30         -8.9820     0.7400    -4.2000 c3         1 60U      -0.112100
     29 H1          -2.2180     1.1470    -2.0340 h1         1 60U       0.151700
     30 H2          -1.4510     2.2450    -1.0380 h1         1 60U       0.151700
     31 H3          -4.0780    -0.0520    -1.5090 h1         1 60U       0.153700
     32 H4          -2.9070    -0.5170    -2.9540 h1         1 60U       0.153700
     33 H5           1.7480     0.2150    -0.9790 ha         1 60U       0.169000
     34 H6          -2.5920    -0.3950     0.0020 hc         1 60U       0.119700
     35 H7           1.3660    -2.0200    -3.4230 hn         1 60U       0.477400
     36 H9           2.9840     0.1960     1.2950 ha         1 60U       0.168000
     37 H10         -1.2330    -4.9330    -2.1010 h1         1 60U       0.076700
     38 H11         -0.9720    -4.6500    -0.5370 h1         1 60U       0.076700
     39 H12         -2.7380    -4.5860    -1.2690 h1         1 60U       0.076700
     40 H13         -6.3230     4.2450    -0.7160 hc         1 60U       0.054367
     41 H14         -5.3910     3.4980     0.4660 hc         1 60U       0.054367
     42 H15         -6.7170     2.5640    -0.1560 hc         1 60U       0.054367
     43 H16         -7.5560     2.3690    -4.3820 h1         1 60U       0.072700
     44 H17         -7.2520     1.1470    -5.6210 h1         1 60U       0.072700
     45 H18         -9.0570     0.3090    -3.2090 hc         1 60U       0.065367
     46 H19         -8.8600    -0.0290    -4.9530 hc         1 60U       0.065367
     47 H20         -9.9020     1.2560    -4.4470 hc         1 60U       0.065367
     48 H21          0.3220    -1.5500    -2.3950 hn         1 60U       0.547800
     49 C26         -1.6800    -4.3550    -1.3010 c3         1 60U       0.186300
     50 F25         -6.9990     3.2540    -2.8410 f          1 60U      -0.127900
@<TRIPOS>BOND
     1    23     7 1
     2    23     9 2
     3     7     1 2
     4    26     6 1
     5    10    21 3
     6    10     9 1
     7     9    20 1
     8     1    20 1
     9     1    12 1
    10    19     6 ar
    11    19    11 ar
    12     6     5 ar
    13     3    12 1
    14     3    18 1
    15    12    13 1
    16    12    16 1
    17    11    18 1
    18    11    17 ar
    19    18     4 1
    20     5    50 1
    21     5     2 ar
    22    13     4 1
    23    13    15 1
    24    17     2 ar
    25     2    25 1
    26    16    14 1
    27    15    24 2
    28    15     8 1
    29    27    25 1
    30    27    28 1
    31    14     8 1
    32    14    22 2
    33     8    49 1
    34     3    29 1
    35     3    30 1
    36     4    31 1
    37     4    32 1
    38     7    33 1
    39    13    34 1
    40    22    35 1
    41    23    36 1
    42    49    37 1
    43    49    38 1
    44    49    39 1
    45    26    40 1
    46    26    41 1
    47    26    42 1
    48    27    43 1
    49    27    44 1
    50    28    45 1
    51    28    46 1
    52    28    47 1
    53    16    48 1
@<TRIPOS>SUBSTRUCTURE
     1 60U         1 TEMP              0 ****  ****    0 ROOT
