@<TRIPOS>MOLECULE
molecule
   47    50     1     0     0
SMALL
bcc


@<TRIPOS>ATOM
      1 N1           0.0000     0.0000     0.0000 nu         1 60V      -0.868200
      2 C2          -0.3830     4.1650    -0.7350 cc         1 60V      -0.091000
      3 C3          -0.3900     4.7990     0.4760 cd         1 60V       0.011900
      4 C6           1.3820     0.0000     0.0000 c2         1 60V       0.651800
      5 C8           1.3400     0.2760     2.3500 c          1 60V       0.713500
      6 C9          -0.1290     0.5640     2.3830 c3         1 60V      -0.139700
      7 C10         -0.9090    -0.6920     2.8160 c3         1 60V       0.169800
      8 C11         -2.1510     0.3960     1.0910 c3         1 60V       0.179800
      9 C12         -3.2640    -0.8290     2.7570 ca         1 60V       0.880900
     10 C13         -4.4840    -1.9130     4.3850 ca         1 60V       0.467600
     11 C16         -5.2960     0.0810     3.3540 ca         1 60V       0.677600
     12 C17         -5.9780     2.0720     2.2510 c3         1 60V       0.117700
     13 C15         -5.4760    -0.9550     4.2700 ca         1 60V      -0.166700
     14 C14         -4.6310    -3.0480     5.3650 c3         1 60V      -0.144400
     15 N5          -3.4030    -1.8210     3.6230 nb         1 60V      -0.760000
     16 O1          -6.2390     1.0460     3.2110 os         1 60V      -0.395100
     17 N6          -4.1890     0.1110     2.6230 nb         1 60V      -0.842000
     18 N4          -2.1200    -0.7680     1.9800 nh         1 60V      -0.704300
     19 O            1.9520     0.3050     3.3970 o          1 60V      -0.616500
     20 N3           2.0190     0.0000     1.2300 n          1 60V      -0.436300
     21 C7           3.4500    -0.3040     1.3060 c3         1 60V       0.091300
     22 N2           2.0580    -0.0020    -1.1130 n2         1 60V      -0.886100
     23 C5          -0.6810     0.8660     0.9740 c3         1 60V       0.312500
     24 C           -0.5650     2.3260     0.6170 cd         1 60V      -0.108400
     25 C1          -0.4810     2.7960    -0.6320 cc         1 60V      -0.140000
     26 S           -0.5260     3.5980     1.7530 ss         1 60V      -0.023800
     27 C4          -0.3000     6.2150     0.6730 ch         1 60V       0.264800
     28 N           -0.2400     7.3350     0.8450 n1         1 60V      -0.344800
     29 H1          -0.4310     4.7000    -1.6750 ha         1 60V       0.167000
     30 H2          -0.3380     1.3870     3.0550 hc         1 60V       0.100700
     31 H3          -0.5350    -1.6740     2.5550 h1         1 60V       0.091700
     32 H4          -1.4410    -0.7070     3.7600 h1         1 60V       0.091700
     33 H5          -2.6030     0.0280     0.1770 h1         1 60V       0.091700
     34 H6          -2.4300     1.2000     1.7610 h1         1 60V       0.091700
     35 H7          -5.2330     2.7840     2.5830 h1         1 60V       0.051033
     36 H8          -6.1970     2.0200     1.1910 h1         1 60V       0.051033
     37 H9          -6.8060     2.7240     2.5010 h1         1 60V       0.051033
     38 H10         -4.3680    -2.5530     6.2920 hc         1 60V       0.074367
     39 H11         -5.7130    -3.0760     5.3960 hc         1 60V       0.074367
     40 H12         -3.8480    -3.7910     5.2670 hc         1 60V       0.074367
     41 H13          3.8610    -0.5330     0.3300 h1         1 60V       0.064367
     42 H14          4.0620     0.4830     1.7290 h1         1 60V       0.064367
     43 H15          3.2260    -1.2720     1.7370 h1         1 60V       0.064367
     44 H16          3.0500    -0.0370    -0.9870 hn         1 60V       0.399400
     45 H18         -0.2680     2.0120    -1.3480 ha         1 60V       0.172000
     46 H19         -0.3150    -0.3500    -0.8830 hn         1 60V       0.472800
     47 F           -6.5890    -1.0190     5.0310 f          1 60V      -0.120900
@<TRIPOS>BOND
     1    12    16 1   
     2    16    11 1   
     3     2    25 1   
     4     2     3 2   
     5    11    17 ar  
     6    11    13 ar  
     7    25    24 2   
     8    47    13 1   
     9    17     9 ar  
    10    27     3 1   
    11    27    28 3   
    12     3    26 1   
    13    13    10 ar  
    14     8    18 1   
    15     8    23 1   
    16    24    26 1   
    17    24    23 1   
    18     9    18 1   
    19     9    15 ar  
    20    10    15 ar  
    21    10    14 1   
    22    18     7 1   
    23    23     6 1   
    24    23     1 1   
    25     6     7 1   
    26     6     5 1   
    27     1     4 1   
    28     5    19 2   
    29     5    20 1   
    30     4    20 1   
    31     4    22 2   
    32    20    21 1   
    33     2    29 1   
    34     6    30 1   
    35     7    31 1   
    36     7    32 1   
    37     8    33 1   
    38     8    34 1   
    39    12    35 1   
    40    12    36 1   
    41    12    37 1   
    42    14    38 1   
    43    14    39 1   
    44    14    40 1   
    45    21    41 1   
    46    21    42 1   
    47    21    43 1   
    48    22    44 1   
    49    25    45 1   
    50     1    46 1   
@<TRIPOS>SUBSTRUCTURE
     1 60V         1 TEMP              0 ****  ****    0 ROOT
