@<TRIPOS>MOLECULE
60V
   47    50     1     0     0
SMALL
bcc


@<TRIPOS>ATOM
      1 N1           0.0000     0.0000     0.0000 nu         1 60V      -0.562200
      2 C2          -0.3830     4.1650    -0.7350 cc         1 60V      -0.078000
      3 C3          -0.3900     4.7990     0.4760 cd         1 60V       0.128900
      4 C6           1.3820     0.0000     0.0000 c2         1 60V       0.395800
      5 C8           1.3400     0.2760     2.3500 c          1 60V       0.616500
      6 C9          -0.1290     0.5640     2.3830 c3         1 60V      -0.144700
      7 C10         -0.9090    -0.6920     2.8160 c3         1 60V       0.174800
      8 C11         -2.1510     0.3960     1.0910 c3         1 60V       0.122800
      9 C12         -3.2640    -0.8290     2.7570 ca         1 60V       0.728900
     10 C13         -4.4840    -1.9130     4.3850 ca         1 60V       0.444600
     11 C16         -5.2960     0.0810     3.3540 ca         1 60V       0.663600
     12 C17         -5.9780     2.0720     2.2510 c3         1 60V       0.231700
     13 C15         -5.4760    -0.9550     4.2700 ca         1 60V      -0.183700
     14 C14         -4.6310    -3.0480     5.3650 c3         1 60V      -0.042400
     15 N5          -3.4030    -1.8210     3.6230 nb         1 60V      -0.646000
     16 O1          -6.2390     1.0460     3.2110 os         1 60V      -0.405100
     17 N6          -4.1890     0.1110     2.6230 nb         1 60V      -0.742000
     18 N4          -2.1200    -0.7680     1.9800 nh         1 60V      -0.448300
     19 O            1.9520     0.3050     3.3970 o          1 60V      -0.656500
     20 N3           2.0190     0.0000     1.2300 n          1 60V       0.025700
     21 C7           3.4500    -0.3040     1.3060 c3         1 60V       0.068300
     22 N2           2.0580    -0.0020    -1.1130 n2         1 60V      -0.760100
     23 C5          -0.6810     0.8660     0.9740 c3         1 60V       0.224500
     24 C           -0.5650     2.3260     0.6170 cd         1 60V      -0.041400
     25 C1          -0.4810     2.7960    -0.6320 cc         1 60V      -0.117000
     26 S           -0.5260     3.5980     1.7530 ss         1 60V      -0.157800
     27 C4          -0.3000     6.2150     0.6730 ch         1 60V       0.252800
     28 N           -0.2370     7.3400     0.8110 n1         1 60V      -0.353800
     29 H1          -0.3090     4.6470    -1.7020 ha         1 60V       0.135000
     30 H2          -0.3380     1.3870     3.0550 hc         1 60V       0.079700
     31 H3          -0.2660    -1.5620     2.7780 h1         1 60V       0.039700
     32 H4          -1.3080    -0.5570     3.8150 h1         1 60V       0.039700
     33 H5          -2.6010     0.1280     0.1420 h1         1 60V       0.051200
     34 H6          -2.7000     1.2060     1.5560 h1         1 60V       0.051200
     35 H7          -5.1720     1.7590     1.5980 h1         1 60V       0.009700
     36 H8          -5.6960     2.9830     2.7640 h1         1 60V       0.009700
     37 H9          -6.8700     2.2500     1.6630 h1         1 60V       0.009700
     38 H10         -3.7230    -3.6400     5.3710 hc         1 60V       0.025367
     39 H11         -4.8070    -2.6490     6.3570 hc         1 60V       0.025367
     40 H12         -5.4670    -3.6720     5.0730 hc         1 60V       0.025367
     41 H13          3.7160    -0.9900     0.5100 h1         1 60V       0.027367
     42 H14          3.6730    -0.7580     2.2640 h1         1 60V       0.027367
     43 H15          4.0200     0.6110     1.1990 h1         1 60V       0.027367
     44 H16          1.5780    -0.0030    -1.9910 hn         1 60V       0.333400
     45 H18         -0.4950     2.0980    -1.4600 ha         1 60V       0.126000
     46 H19         -0.5030    -0.4440    -0.7430 hn         1 60V       0.320800
     47 F           -6.5890    -1.0190     5.0310 f          1 60V      -0.104900
@<TRIPOS>BOND
     1     1     4 1   
     2     1    23 1   
     3     1    46 1   
     4     2     3 2   
     5     2    25 1   
     6     2    29 1   
     7     3    26 1   
     8     3    27 1   
     9     4    20 1   
    10     4    22 2   
    11     5     6 1   
    12     5    19 2   
    13     5    20 1   
    14     6     7 1   
    15     6    23 1   
    16     6    30 1   
    17     7    18 1   
    18     7    31 1   
    19     7    32 1   
    20     8    18 1   
    21     8    23 1   
    22     8    33 1   
    23     8    34 1   
    24     9    15 ar  
    25     9    17 ar  
    26     9    18 1   
    27    10    13 ar  
    28    10    14 1   
    29    10    15 ar  
    30    11    13 ar  
    31    11    16 1   
    32    11    17 ar  
    33    12    16 1   
    34    12    35 1   
    35    12    36 1   
    36    12    37 1   
    37    13    47 1   
    38    14    38 1   
    39    14    39 1   
    40    14    40 1   
    41    20    21 1   
    42    21    41 1   
    43    21    42 1   
    44    21    43 1   
    45    22    44 1   
    46    23    24 1   
    47    24    25 2   
    48    24    26 1   
    49    25    45 1   
    50    27    28 3   
@<TRIPOS>SUBSTRUCTURE
     1 60V         1 TEMP              0 ****  ****    0 ROOT
