@<TRIPOS>MOLECULE
molecule
   54    58     1     0     0
SMALL
bcc


@<TRIPOS>ATOM
      1 C1           0.0000     0.0000     0.0000 cc         1 60W      -0.092000
      2 C2           1.3930     0.0000     0.0000 cc         1 60W      -0.112000
      3 C3           1.9550     0.0000     1.2070 cd         1 60W       0.005600
      4 C4           3.4380     0.0010     1.4720 c3         1 60W       0.320500
      5 C5           4.1330     1.9850     0.2330 c2         1 60W       0.667800
      6 C8           3.7950     0.7150     2.7930 c3         1 60W      -0.226700
      7 C11          5.3930    -2.2780     3.4080 ca         1 60W       0.830900
      8 C12          6.6480    -3.2570     5.0750 ca         1 60W       0.673600
      9 C13          8.6250    -2.1390     5.7680 c3         1 60W       0.122700
     10 C14          5.7260    -4.3040     5.1330 ca         1 60W      -0.140700
     11 C15          4.6400    -4.2740     4.2770 ca         1 60W       0.470200
     12 C16         -0.8020    -0.0000    -1.2480 ca         1 60W      -0.015000
     13 C17         -2.1920    -0.0000    -1.1820 ca         1 60W      -0.082000
     14 C20         -0.9100     0.0060    -3.6520 ca         1 60W      -0.138000
     15 C21         -0.1650     0.0060    -2.4880 ca         1 60W      -0.110000
     16 C22         -4.3710     0.0010    -2.3010 cg         1 60W       0.240800
     17 N6          -5.5050    -0.0160    -2.2620 n1         1 60W      -0.362800
     18 C18         -2.9390    -0.0000    -2.3590 ca         1 60W      -0.007000
     19 C19         -2.2900    -0.0010    -3.5960 ca         1 60W      -0.090000
     20 C           -0.5570    -0.0050     1.2250 cd         1 60W      -0.054100
     21 S            0.7070     0.0000     2.4460 ss         1 60W      -0.161800
     22 C10          3.9920    -1.4250     1.7120 c3         1 60W      -0.221200
     23 N3           5.2160    -1.2330     2.5150 nh         1 60W      -0.532300
     24 C9           5.1190     0.0560     3.2230 c3         1 60W       0.135800
     25 C7           3.9900     2.1830     2.5870 c          1 60W       0.707500
     26 O            3.9880     2.9020     3.5640 o          1 60W      -0.605500
     27 N2           4.1660     2.7500     1.3860 n          1 60W      -0.440300
     28 N1           4.0360     2.5370    -0.9430 n2         1 60W      -0.995100
     29 N            4.1950     0.6220     0.3760 nu         1 60W      -0.907200
     30 N5           4.5050    -3.2600     3.4370 nb         1 60W      -0.724000
     31 F            5.8940    -5.3240     6.0020 f          1 60W      -0.109900
     32 N4           6.4500    -2.2720     4.2070 nb         1 60W      -0.793000
     33 O1           7.7300    -3.2470     5.8910 os         1 60W      -0.410100
     34 H1           1.5470     0.2160    -1.0500 ha         1 60W       0.176000
     35 H2           5.4890     4.2690     1.3470 h1         1 60W       0.062367
     36 H3           4.1960     4.5290     0.2860 h1         1 60W       0.062367
     37 H4           3.7160     4.8090     1.8500 h1         1 60W       0.062367
     38 H5           3.0280     0.5370     3.5370 hc         1 60W       0.107700
     39 H6           9.4800    -2.3470     6.4010 h1         1 60W       0.057367
     40 H7           8.0580    -1.2190     5.8270 h1         1 60W       0.057367
     41 H8           9.1780    -2.1120     4.8370 h1         1 60W       0.057367
     42 H9           3.9950    -5.1210     4.4770 h4         1 60W       0.059100
     43 H10         -2.7110     0.0640    -0.2330 ha         1 60W       0.144000
     44 H11         -0.3330     0.2220    -4.5420 ha         1 60W       0.140000
     45 H12          0.9140    -0.0600    -2.5550 ha         1 60W       0.144000
     46 H13         -2.7240     0.1370    -4.5780 ha         1 60W       0.144000
     47 H14         -1.5820     0.1900     1.5170 h4         1 60W       0.172000
     48 H15          3.3040    -2.1370     2.1510 h1         1 60W       0.199700
     49 H16          5.0270    -1.3530     2.0240 h1         1 60W       0.199700
     50 H17          4.8650    -0.1570     4.2540 h1         1 60W       0.094200
     51 H18          5.9640     0.6610     2.9180 h1         1 60W       0.094200
     52 H19          4.2230     2.3110    -1.9000 hn         1 60W       0.503400
     53 H20          4.6830     1.4800     0.2140 hn         1 60W       0.530800
     54 C6           4.4100     4.1910     1.2930 c3         1 60W       0.088300
@<TRIPOS>BOND
     1     9    33 1   
     2    33     8 1   
     3    20    21 1   
     4    20     1 2   
     5    21     3 1   
     6     8    32 ar  
     7     8    10 ar  
     8    15    14 ar  
     9    15    12 ar  
    10    31    10 1   
    11    14    19 ar  
    12    32     7 ar  
    13    10    11 ar  
    14     1    12 1   
    15     1     2 1   
    16    12    13 ar  
    17    22    23 1   
    18    22     4 1   
    19     3     2 2   
    20     3     4 1   
    21    19    18 ar  
    22     7    23 1   
    23     7    30 ar  
    24    11    30 ar  
    25    13    18 ar  
    26    23    24 1   
    27     4     6 1   
    28     4    29 1   
    29    18    16 1   
    30     6    24 1   
    31     6    25 1   
    32    29     5 1   
    33    16    17 3   
    34    25    26 2   
    35    25    27 1   
    36     5    27 1   
    37     5    28 2   
    38    27    54 1   
    39     2    34 1   
    40    54    35 1   
    41    54    36 1   
    42    54    37 1   
    43     6    38 1   
    44     9    39 1   
    45     9    40 1   
    46     9    41 1   
    47    11    42 1   
    48    13    43 1   
    49    14    44 1   
    50    15    45 1   
    51    19    46 1   
    52    20    47 1   
    53    22    48 1   
    54    22    49 1   
    55    24    50 1   
    56    24    51 1   
    57    28    52 1   
    58    29    53 1   
@<TRIPOS>SUBSTRUCTURE
     1 60W         1 TEMP              0 ****  ****    0 ROOT
