@<TRIPOS>MOLECULE
60W
   54    59     1     0     0
SMALL
bcc


@<TRIPOS>ATOM
      1 C1           0.0000     0.0000     0.0000 c2         1 60W      -0.064000
      2 C2           1.3930     0.0000     0.0000 c2         1 60W      -0.082000
      3 C3           1.9550     0.0000     1.2070 c2         1 60W      -0.225000
      4 C4           3.4380     0.0010     1.4720 c3         1 60W       0.142000
      5 C5           4.1330     1.9850     0.2330 c3         1 60W       0.020000
      6 C8           3.7950     0.7150     2.7930 c3         1 60W      -0.181000
      7 C11          5.3930    -2.2780     3.4080 c2         1 60W      -0.158000
      8 C12          6.6480    -3.2570     5.0750 c2         1 60W       0.140000
      9 C13          8.6250    -2.1390     5.7680 c3         1 60W       0.044000
     10 C14          5.7260    -4.3040     5.1330 c2         1 60W      -0.039000
     11 C15          4.6400    -4.2740     4.2770 c2         1 60W      -0.017000
     12 C16         -0.8020    -0.0000    -1.2480 ca         1 60W      -0.023000
     13 C17         -2.1920    -0.0000    -1.1820 ca         1 60W      -0.080000
     14 C20         -0.9100     0.0060    -3.6520 ca         1 60W      -0.103000
     15 C21         -0.1650     0.0060    -2.4880 ca         1 60W      -0.058000
     16 C22         -4.3710     0.0010    -2.3010 c1         1 60W      -0.097000
     17 N6          -5.5040     0.0110    -2.2370 n1         1 60W      -0.059000
     18 C18         -2.9390    -0.0000    -2.3590 ca         1 60W       0.044000
     19 C19         -2.2900    -0.0010    -3.5960 ca         1 60W      -0.096000
     20 C           -0.5570    -0.0050     1.2250 c2         1 60W      -0.260000
     21 S            0.7070     0.0000     2.4460 ss         1 60W       0.250000
     22 C10          3.9920    -1.4250     1.7120 c3         1 60W      -0.602000
     23 N3           5.2160    -1.2330     2.5150 nh         1 60W       0.656000
     24 C9           5.1190     0.0560     3.2230 c3         1 60W      -0.272000
     25 C7           3.9900     2.1830     2.5870 c2         1 60W       0.239000
     26 O            3.9880     2.9020     3.5640 o          1 60W      -0.374000
     27 N2           4.1660     2.7500     1.3860 n          1 60W      -0.020000
     28 N1           4.0360     2.5370    -0.9430 n2         1 60W      -0.248000
     29 N            4.1950     0.6220     0.3760 n7         1 60W      -0.189000
     30 N5           4.5050    -3.2600     3.4370 n2         1 60W      -0.046000
     31 F            5.8940    -5.3240     6.0020 f          1 60W      -0.062000
     32 N4           6.4500    -2.2720     4.2070 n2         1 60W      -0.144000
     33 O1           7.7300    -3.2470     5.8910 os         1 60W      -0.171000
     34 H1           1.8060     0.3540    -0.9370 ha         1 60W       0.154000
     35 H2           5.4070     4.5010     1.0040 h1         1 60W       0.069000
     36 H3           3.6490     4.5660     0.6190 h1         1 60W       0.069000
     37 H4           3.8870     4.6960     2.0960 h1         1 60W       0.069000
     38 H5           3.0280     0.5370     3.5370 hc         1 60W       0.131000
     39 H6           9.5110    -2.6670     6.1020 h1         1 60W       0.059333
     40 H7           8.4830    -1.6090     6.7020 h1         1 60W       0.059333
     41 H8           8.8210    -1.8800     4.7350 h1         1 60W       0.059333
     42 H9           4.1390    -5.2070     4.0470 h4         1 60W       0.149000
     43 H10         -2.5470    -0.1330    -0.1680 ha         1 60W       0.125000
     44 H11         -0.6970    -0.2480    -4.6830 ha         1 60W       0.117000
     45 H12          0.8620    -0.3380    -2.5130 ha         1 60W       0.125000
     46 H13         -2.8490     0.1040    -4.5180 ha         1 60W       0.114000
     47 H14         -1.5200     0.4290     1.4680 h4         1 60W       0.156000
     48 H15          3.4120    -2.0230     2.4040 h1         1 60W       0.113000
     49 H16          4.9870    -1.2890     2.1180 h1         1 60W       0.113000
     50 H17          5.1450    -0.0380     4.3010 h1         1 60W       0.099000
     51 H18          5.8780     0.8240     3.1450 h1         1 60W       0.099000
     52 H19          4.3300     3.3560    -1.4370 hn         1 60W       0.144000
     53 H20          4.7080     1.4770     0.2930 DU         1 60W       0.219000
     54 C6           4.4100     4.1910     1.2930 c3         1 60W      -0.105000
@<TRIPOS>BOND
     1     1     2 1   
     2     1    12 1   
     3     1    20 1   
     4     2     3 1   
     5     2    34 1   
     6     3     4 1   
     7     3    21 1   
     8     4     6 1   
     9     4    22 1   
    10     4    29 1   
    11     5    27 1   
    12     5    28 1   
    13     5    29 1   
    14     5    53 1   
    15     6    24 1   
    16     6    25 1   
    17     6    38 1   
    18     7    23 1   
    19     7    30 1   
    20     7    32 1   
    21     8    10 1   
    22     8    32 1   
    23     8    33 1   
    24     9    33 1   
    25     9    39 1   
    26     9    40 1   
    27     9    41 1   
    28    10    11 1   
    29    10    31 1   
    30    11    30 1   
    31    11    42 1   
    32    12    13 1   
    33    12    15 1   
    34    13    18 1   
    35    13    43 1   
    36    14    15 1   
    37    14    19 1   
    38    14    44 1   
    39    15    45 1   
    40    16    17 1   
    41    16    18 1   
    42    18    19 1   
    43    19    46 1   
    44    20    21 1   
    45    20    47 1   
    46    22    23 1   
    47    22    48 1   
    48    22    49 1   
    49    23    24 1   
    50    24    50 1   
    51    24    51 1   
    52    25    26 1   
    53    25    27 1   
    54    27    54 1   
    55    28    52 1   
    56    29    53 1   
    57    35    54 1   
    58    36    54 1   
    59    37    54 1   
@<TRIPOS>SUBSTRUCTURE
     1 60W         1 TEMP              0 ****  ****    0 ROOT
