@<TRIPOS>MOLECULE
60X
   49    52     1     0     0
SMALL
bcc


@<TRIPOS>ATOM
      1 C18          0.0000     0.0000     0.0000 c3         1 60X      -0.042400
      2 C17          7.7330    -2.1740    -1.8120 ca         1 60X       0.141900
      3 C16          8.9710    -2.7090    -1.5010 ca         1 60X      -0.166000
      4 N2           4.1840    -0.0010    -2.3380 nh         1 60X      -0.454300
      5 C15         10.0530    -2.4770    -2.3320 ca         1 60X       0.138900
      6 C11          3.8370    -1.1910    -3.1350 c3         1 60X       0.174800
      7 C12          7.5790    -1.4060    -2.9540 ca         1 60X      -0.154300
      8 C13          8.6600    -1.1760    -3.7840 ca         1 60X      -0.051000
      9 C14          9.8960    -1.7110    -3.4750 ca         1 60X      -0.136000
     10 N1           4.2070     0.0000     0.0000 nb         1 60X      -0.735000
     11 C10          5.1530    -1.9110    -3.4810 c3         1 60X      -0.148700
     12 C7           6.4120    -0.6060    -5.7160 c2         1 60X       0.404800
     13 C9           5.1170    -2.4070    -4.8910 c          1 60X       0.630500
     14 C6           6.2310    -0.8220    -3.2920 c3         1 60X       0.193500
     15 C4           5.7340    -0.0010     2.2030 c3         1 60X       0.251700
     16 C3           3.5930     0.0000     1.1760 ca         1 60X       0.662600
     17 C2           3.5110    -0.0000    -1.1260 ca         1 60X       0.731900
     18 C1           1.5080    -0.0000     0.0120 ca         1 60X       0.441600
     19 C5           5.6470     0.0170    -2.1290 c3         1 60X       0.109800
     20 F2           6.6760    -2.4030    -1.0040 f          1 60X      -0.121900
     21 F1          11.2620    -3.0000    -2.0310 f          1 60X      -0.120900
     22 N5           5.6930    -1.7710    -5.9200 n          1 60X      -0.053300
     23 N4           7.1910    -0.1210    -6.6390 n2         1 60X      -0.778100
     24 N3           6.2790     0.0150    -4.4990 nu         1 60X      -0.503200
     25 N            2.1870     0.0000    -1.1260 nb         1 60X      -0.646000
     26 C            2.1970     0.0000     1.2110 ca         1 60X      -0.184700
     27 F            1.5360     0.0010     2.3890 f          1 60X      -0.105900
     28 H1          -0.3530     0.1010    -1.0190 hc         1 60X       0.024700
     29 H2          -0.3650    -0.9310     0.4180 hc         1 60X       0.024700
     30 H3          -0.3660     0.8300     0.5920 hc         1 60X       0.024700
     31 H4           9.0930    -3.3090    -0.6070 ha         1 60X       0.137000
     32 H5           3.2000    -1.8480    -2.5550 h1         1 60X       0.038700
     33 H6           3.3330    -0.8890    -4.0450 h1         1 60X       0.038700
     34 H7           8.5380    -0.5760    -4.6770 ha         1 60X       0.147000
     35 H8          10.7430    -1.5300    -4.1260 ha         1 60X       0.128000
     36 H9           5.3240    -2.7330    -2.7960 hc         1 60X       0.082700
     37 H10          6.4840    -2.7670    -7.5820 h1         1 60X       0.026700
     38 H11          4.7630    -3.0520    -7.2890 h1         1 60X       0.026700
     39 H12          5.3030    -1.5060    -7.9590 h1         1 60X       0.026700
     40 H13          6.0600    -0.9460     1.7890 h1         1 60X       0.004700
     41 H14          6.0410     0.8060     1.5490 h1         1 60X       0.004700
     42 H15          6.1790     0.1380     3.1810 h1         1 60X       0.004700
     43 H16          6.0200     1.0340    -2.1770 h1         1 60X       0.059200
     44 H17          5.8950    -0.4370    -1.1770 h1         1 60X       0.059200
     45 H18          7.2780    -0.5900    -7.5190 hn         1 60X       0.340400
     46 H19          6.2150     1.0120    -4.4360 hn         1 60X       0.327800
     47 O            4.3100    -0.0000     2.3260 os         1 60X      -0.407100
     48 O1           4.5350    -3.4470    -5.1160 o          1 60X      -0.658500
     49 C8           5.5510    -2.3090    -7.2760 c3         1 60X       0.060300
@<TRIPOS>BOND
     1     1    18 1   
     2     1    28 1   
     3     1    29 1   
     4     1    30 1   
     5     2     3 ar  
     6     2     7 ar  
     7     2    20 1   
     8     3     5 ar  
     9     3    31 1   
    10     4     6 1   
    11     4    17 1   
    12     4    19 1   
    13     5     9 ar  
    14     5    21 1   
    15     6    11 1   
    16     6    32 1   
    17     6    33 1   
    18     7     8 ar  
    19     7    14 1   
    20     8     9 ar  
    21     8    34 1   
    22     9    35 1   
    23    10    16 ar  
    24    10    17 ar  
    25    11    13 1   
    26    11    14 1   
    27    11    36 1   
    28    12    22 1   
    29    12    23 2   
    30    12    24 1   
    31    13    22 1   
    32    13    48 2   
    33    14    19 1   
    34    14    24 1   
    35    15    40 1   
    36    15    41 1   
    37    15    42 1   
    38    15    47 1   
    39    16    26 ar  
    40    16    47 1   
    41    17    25 ar  
    42    18    25 ar  
    43    18    26 ar  
    44    19    43 1   
    45    19    44 1   
    46    22    49 1   
    47    23    45 1   
    48    24    46 1   
    49    26    27 1   
    50    37    49 1   
    51    38    49 1   
    52    39    49 1   
@<TRIPOS>SUBSTRUCTURE
     1 60X         1 TEMP              0 ****  ****    0 ROOT
