@<TRIPOS>MOLECULE
molecule
   49    52     1     0     0
SMALL
bcc


@<TRIPOS>ATOM
      1 C18          0.0000     0.0000     0.0000 c3         1 60X      -0.141400
      2 C17          7.7330    -2.1740    -1.8120 ca         1 60X       0.163900
      3 C16          8.9710    -2.7090    -1.5010 ca         1 60X      -0.208000
      4 N2           4.1840    -0.0010    -2.3380 nh         1 60X      -0.668300
      5 C15         10.0530    -2.4770    -2.3320 ca         1 60X       0.167900
      6 C11          3.8370    -1.1910    -3.1350 c3         1 60X       0.190800
      7 C12          7.5790    -1.4060    -2.9540 ca         1 60X      -0.154300
      8 C13          8.6600    -1.1760    -3.7840 ca         1 60X      -0.059000
      9 C14          9.8960    -1.7110    -3.4750 ca         1 60X      -0.178000
     10 N1           4.2070     0.0000     0.0000 nb         1 60X      -0.849000
     11 C10          5.1530    -1.9110    -3.4810 c3         1 60X      -0.170700
     12 C7           6.4120    -0.6060    -5.7160 c2         1 60X       0.703800
     13 C9           5.1170    -2.4070    -4.8910 c          1 60X       0.712500
     14 C6           6.2310    -0.8220    -3.2920 c3         1 60X       0.287500
     15 C4           5.7340    -0.0010     2.2030 c3         1 60X       0.133700
     16 C3           3.5930     0.0000     1.1760 ca         1 60X       0.686600
     17 C2           3.5110    -0.0000    -1.1260 ca         1 60X       0.887900
     18 C1           1.5080    -0.0000     0.0120 ca         1 60X       0.480600
     19 C5           5.6470     0.0170    -2.1290 c3         1 60X       0.150800
     20 F2           6.6760    -2.4030    -1.0040 f          1 60X      -0.132900
     21 F1          11.2620    -3.0000    -2.0310 f          1 60X      -0.129900
     22 N5           5.6930    -1.7710    -5.9200 n          1 60X      -0.380300
     23 N4           7.1910    -0.1210    -6.6390 n2         1 60X      -0.905100
     24 N3           6.2790     0.0150    -4.4990 nu         1 60X      -0.949200
     25 N            2.1870     0.0000    -1.1260 nb         1 60X      -0.753000
     26 C            2.1970     0.0000     1.2110 ca         1 60X      -0.157700
     27 F            1.5360     0.0010     2.3890 f          1 60X      -0.119900
     28 H1          -0.3530     0.1370    -1.0150 hc         1 60X       0.064700
     29 H2          -0.3660     0.8080     0.6210 hc         1 60X       0.064700
     30 H3          -0.3640    -0.9450     0.3850 hc         1 60X       0.064700
     31 H4           9.0930    -3.3090    -0.6070 ha         1 60X       0.164000
     32 H5           3.3330    -0.8890    -4.0450 h1         1 60X       0.076700
     33 H6           3.2000    -1.8480    -2.5550 h1         1 60X       0.076700
     34 H7           8.5380    -0.5760    -4.6770 ha         1 60X       0.159000
     35 H8          10.7430    -1.5300    -4.1260 ha         1 60X       0.156000
     36 H9           5.3240    -2.7330    -2.7960 hc         1 60X       0.110700
     37 H10          5.8340    -1.5510    -7.9960 h1         1 60X       0.059033
     38 H11          4.5210    -2.6000    -7.4430 h1         1 60X       0.059033
     39 H12          6.1940    -3.1730    -7.3900 h1         1 60X       0.059033
     40 H13          6.0590    -0.9390     1.7720 h1         1 60X       0.050700
     41 H14          6.0450     0.8180     1.5650 h1         1 60X       0.050700
     42 H15          6.1770     0.1180     3.1850 h1         1 60X       0.050700
     43 H16          5.8950    -0.4370    -1.1770 h1         1 60X       0.085700
     44 H17          6.0200     1.0340    -2.1770 h1         1 60X       0.085700
     45 H18          7.7040     0.7220    -6.4690 hn         1 60X       0.412400
     46 H19          6.2150     1.0120    -4.4360 hn         1 60X       0.465800
     47 O            4.3100    -0.0000     2.3260 os         1 60X      -0.420100
     48 O1           4.5350    -3.4470    -5.1160 o          1 60X      -0.615500
     49 C8           5.5510    -2.3090    -7.2760 c3         1 60X       0.106300
@<TRIPOS>BOND
     1    15    47 1
     2    21     5 1
     3    47    16 1
     4     3     5 ar
     5     3     2 ar
     6    20     2 1
     7     5     9 ar
     8     2     7 ar
     9    16    10 ar
    10    16    26 ar
    11    27    26 1
    12    10    17 ar
    13    26    18 ar
    14     9     8 ar
    15    19     4 1
    16    19    14 1
    17     7     8 ar
    18     7    14 1
    19    17     4 1
    20    17    25 ar
    21    18    25 ar
    22    18     1 1
    23     4     6 1
    24    14    11 1
    25    14    24 1
    26    11     6 1
    27    11    13 1
    28    24    12 1
    29    13    48 2
    30    13    22 1
    31    12    22 1
    32    12    23 2
    33    22    49 1
    34     1    28 1
    35     1    29 1
    36     1    30 1
    37     3    31 1
    38     6    32 1
    39     6    33 1
    40     8    34 1
    41     9    35 1
    42    11    36 1
    43    49    37 1
    44    49    38 1
    45    49    39 1
    46    15    40 1
    47    15    41 1
    48    15    42 1
    49    19    43 1
    50    19    44 1
    51    23    45 1
    52    24    46 1
@<TRIPOS>SUBSTRUCTURE
     1 60X         1 TEMP              0 ****  ****    0 ROOT
