@<TRIPOS>MOLECULE
60Y
   50    54     1     0     0
SMALL
bcc


@<TRIPOS>ATOM
      1 C20          0.0000     0.0000     0.0000 ca         1 60Y      -0.074000
      2 C13          3.7820    -4.5200    -8.6350 ca         1 60Y      -0.163700
      3 C11          2.5440    -2.3890    -7.5890 ca         1 60Y       0.694900
      4 C17          1.3830     0.0000     2.4090 ca         1 60Y       0.032000
      5 C10          1.7380    -1.4350    -5.5860 c3         1 60Y       0.125800
      6 C12          3.5270    -4.4460    -7.2740 ca         1 60Y       0.460700
      7 C18         -0.0140     0.0010     2.3950 ca         1 60Y      -0.070000
      8 C15          1.3940     0.0000     0.0000 ca         1 60Y      -0.017000
      9 C14          3.3860    -3.4620    -9.4420 ca         1 60Y       0.460700
     10 C16          2.0880     0.0000     1.2050 ca         1 60Y      -0.070000
     11 C19         -0.6940     0.0000     1.1940 ca         1 60Y      -0.096000
     12 N6           2.6670     0.0020     4.6330 n1         1 60Y      -0.376800
     13 C21          2.0890     0.0000     3.6550 cg         1 60Y       0.228800
     14 C1           2.1370    -0.0010    -1.2850 cc         1 60Y      -0.054000
     15 C            3.4820    -0.0060    -1.3490 cd         1 60Y       0.020900
     16 C2           1.5000    -0.0010    -2.5240 cc         1 60Y      -0.093000
     17 C3           2.3180    -0.0010    -3.5740 cd         1 60Y      -0.034400
     18 S            3.9900    -0.0050    -3.0320 ss         1 60Y      -0.245800
     19 C4           1.8750    -0.0030    -5.0150 c3         1 60Y       0.212500
     20 N3           1.9040    -1.2870    -7.0460 nh         1 60Y      -0.453300
     21 N5           2.7760    -2.4260    -8.8920 nb         1 60Y      -0.631500
     22 N4           2.9140    -3.3790    -6.7890 nb         1 60Y      -0.631500
     23 C9           2.6640    -0.0510    -7.3090 c3         1 60Y       0.179800
     24 C8           2.9320     0.6210    -5.9510 c3         1 60Y      -0.145700
     25 C7           2.7600     2.1020    -6.0630 c          1 60Y       0.630500
     26 O            3.6760     2.7510    -6.5220 o          1 60Y      -0.659500
     27 N2           1.6520     2.7550    -5.6840 n          1 60Y      -0.036300
     28 C6           1.5610     4.2030    -5.8810 c3         1 60Y       0.055300
     29 C5           0.5930     2.0720    -5.1110 c2         1 60Y       0.394800
     30 N1          -0.3680     2.7040    -4.5000 n2         1 60Y      -0.782100
     31 N            0.5910     0.6880    -5.1990 nu         1 60Y      -0.486200
     32 H1          -0.5420    -0.0000    -0.9380 ha         1 60Y       0.115000
     33 H2           0.7370    -1.8120    -5.4090 h1         1 60Y       0.054700
     34 H3           2.4740    -2.0880    -5.1330 h1         1 60Y       0.054700
     35 H4           3.8270    -5.2570    -6.6210 h4         1 60Y       0.000600
     36 H5          -0.5650     0.0010     3.3280 ha         1 60Y       0.114000
     37 H6           3.5720    -3.4940   -10.5080 h4         1 60Y       0.000600
     38 H7           3.1710    -0.0000     1.2120 ha         1 60Y       0.118000
     39 H8          -1.7770     0.0000     1.1910 ha         1 60Y       0.111000
     40 H9           4.1600    -0.0150    -0.5050 h4         1 60Y       0.159000
     41 H10          0.4290    -0.0050    -2.6870 ha         1 60Y       0.135000
     42 H11          2.0670     0.5760    -7.9600 h1         1 60Y       0.043700
     43 H12          3.6600    -0.3340    -7.6290 h1         1 60Y       0.043700
     44 H13          3.9300     0.3820    -5.6040 hc         1 60Y       0.082700
     45 H14          1.3480     4.6830    -4.9330 h1         1 60Y       0.028367
     46 H15          2.5010     4.5750    -6.2700 h1         1 60Y       0.028367
     47 H16          0.7670     4.4230    -6.5830 h1         1 60Y       0.028367
     48 H17         -0.3490     3.7030    -4.4380 hn         1 60Y       0.341400
     49 H18         -0.2710     0.2060    -5.0310 hn         1 60Y       0.315800
     50 F            4.5570    -5.6040    -9.2500 f          1 60Y      -0.146900
@<TRIPOS>BOND
     1     1     8 ar  
     2     1    11 ar  
     3     1    32 1   
     4     2     6 ar  
     5     2     9 ar  
     6     2    50 1   
     7     3    20 1   
     8     3    21 ar  
     9     3    22 ar  
    10     4     7 ar  
    11     4    10 ar  
    12     4    13 1   
    13     5    19 1   
    14     5    20 1   
    15     5    33 1   
    16     5    34 1   
    17     6    22 ar  
    18     6    35 1   
    19     7    11 ar  
    20     7    36 1   
    21     8    10 ar  
    22     8    14 1   
    23     9    21 ar  
    24     9    37 1   
    25    10    38 1   
    26    11    39 1   
    27    12    13 3   
    28    14    15 2   
    29    14    16 1   
    30    15    18 1   
    31    15    40 1   
    32    16    17 2   
    33    16    41 1   
    34    17    18 1   
    35    17    19 1   
    36    19    24 1   
    37    19    31 1   
    38    20    23 1   
    39    23    24 1   
    40    23    42 1   
    41    23    43 1   
    42    24    25 1   
    43    24    44 1   
    44    25    26 2   
    45    25    27 1   
    46    27    28 1   
    47    27    29 1   
    48    28    45 1   
    49    28    46 1   
    50    28    47 1   
    51    29    30 2   
    52    29    31 1   
    53    30    48 1   
    54    31    49 1   
@<TRIPOS>SUBSTRUCTURE
     1 60Y         1 TEMP              0 ****  ****    0 ROOT
