@<TRIPOS>MOLECULE
molecule
   50    54     1     0     0
SMALL
bcc


@<TRIPOS>ATOM
      1 C20          0.0000     0.0000     0.0000 ca         1 60Y      -0.125000
      2 C13          3.7820    -4.5200    -8.6350 ca         1 60Y      -0.183700
      3 C11          2.5440    -2.3890    -7.5890 ca         1 60Y       0.851900
      4 C17          1.3830     0.0000     2.4090 ca         1 60Y      -0.013000
      5 C10          1.7380    -1.4350    -5.5860 c3         1 60Y       0.156800
      6 C12          3.5270    -4.4460    -7.2740 ca         1 60Y       0.471700
      7 C18         -0.0140     0.0010     2.3950 ca         1 60Y      -0.092000
      8 C15          1.3940     0.0000     0.0000 ca         1 60Y      -0.042000
      9 C14          3.3860    -3.4620    -9.4420 ca         1 60Y       0.471700
     10 C16          2.0880     0.0000     1.2050 ca         1 60Y      -0.082000
     11 C19         -0.6940     0.0000     1.1940 ca         1 60Y      -0.113000
     12 N6           2.6450    -0.0190     4.6450 n1         1 60Y      -0.358800
     13 C21          2.0890     0.0000     3.6550 cg         1 60Y       0.237800
     14 C1           2.1370    -0.0010    -1.2850 cd         1 60Y      -0.062000
     15 C            3.4820    -0.0060    -1.3490 cc         1 60Y      -0.047100
     16 C2           1.5000    -0.0010    -2.5240 cd         1 60Y      -0.150000
     17 C3           2.3180    -0.0010    -3.5740 cc         1 60Y      -0.057400
     18 S            3.9900    -0.0050    -3.0320 ss         1 60Y      -0.133800
     19 C4           1.8750    -0.0030    -5.0150 c3         1 60Y       0.319500
     20 N3           1.9040    -1.2870    -7.0460 nh         1 60Y      -0.640300
     21 N5           2.7760    -2.4260    -8.8920 nb         1 60Y      -0.742000
     22 N4           2.9140    -3.3790    -6.7890 nb         1 60Y      -0.742000
     23 C9           2.6640    -0.0510    -7.3090 c3         1 60Y       0.189800
     24 C8           2.9320     0.6210    -5.9510 c3         1 60Y      -0.148700
     25 C7           2.7600     2.1020    -6.0630 c          1 60Y       0.713500
     26 O            3.6760     2.7510    -6.5220 o          1 60Y      -0.616500
     27 N2           1.6520     2.7550    -5.6840 n          1 60Y      -0.370300
     28 C6           1.5610     4.2030    -5.8810 c3         1 60Y       0.088300
     29 C5           0.5930     2.0720    -5.1110 c2         1 60Y       0.626800
     30 N1          -0.3680     2.7040    -4.5000 n2         1 60Y      -0.896100
     31 N            0.5910     0.6880    -5.1990 nu         1 60Y      -0.859200
     32 H1          -0.0760     0.0760    -1.0780 ha         1 60Y       0.164000
     33 H2           2.3350    -2.1410    -5.0210 h1         1 60Y       0.078700
     34 H3           0.7700    -1.8410    -5.3160 h1         1 60Y       0.078700
     35 H4           3.9760    -5.1860    -6.6220 h4         1 60Y       0.048600
     36 H5          -0.7450     0.2870     3.1420 ha         1 60Y       0.151000
     37 H6           3.3820    -3.7310   -10.4910 h4         1 60Y       0.048600
     38 H7           3.1440    -0.1580     1.3870 ha         1 60Y       0.143000
     39 H8          -1.7740    -0.0760     1.1470 ha         1 60Y       0.141000
     40 H9           4.2660    -0.1070    -0.6080 h4         1 60Y       0.181000
     41 H10          0.5820    -0.5760    -2.5400 ha         1 60Y       0.158000
     42 H11          3.5540    -0.3680    -7.8410 h1         1 60Y       0.081700
     43 H12          2.0350     0.5880    -7.9170 h1         1 60Y       0.081700
     44 H13          3.9300     0.3820    -5.6040 hc         1 60Y       0.104700
     45 H14          1.3460     4.4060    -6.9230 h1         1 60Y       0.065700
     46 H15          1.2700     4.7840    -5.0140 h1         1 60Y       0.065700
     47 H16          2.6120     4.4560    -5.8080 h1         1 60Y       0.065700
     48 H17         -1.1790     2.1760    -4.2460 hn         1 60Y       0.405400
     49 H18         -0.3080     0.7130    -4.7590 hn         1 60Y       0.432800
     50 F            4.8600    -5.4260    -8.9460 f          1 60Y      -0.147900
@<TRIPOS>BOND
     1    15    18 1
     2    15    14 2
     3     1    11 ar
     4     1     8 ar
     5    18    17 1
     6    11     7 ar
     7    14     8 1
     8    14    16 1
     9     8    10 ar
    10     7     4 ar
    11    17    16 2
    12    17    19 1
    13     6    22 ar
    14     6     2 ar
    15    22     3 ar
    16     5    19 1
    17     5    20 1
    18    10     4 ar
    19     4    13 1
    20    19    24 1
    21    19    31 1
    22     2    50 1
    23     2     9 ar
    24     3    20 1
    25     3    21 ar
    26    20    23 1
    27    24    23 1
    28    24    25 1
    29     9    21 ar
    30    13    12 3
    31    31    29 1
    32    25    26 2
    33    25    27 1
    34    29    27 1
    35    29    30 2
    36    27    28 1
    37     1    32 1
    38     5    33 1
    39     5    34 1
    40     6    35 1
    41     7    36 1
    42     9    37 1
    43    10    38 1
    44    11    39 1
    45    15    40 1
    46    16    41 1
    47    23    42 1
    48    23    43 1
    49    24    44 1
    50    28    45 1
    51    28    46 1
    52    28    47 1
    53    30    48 1
    54    31    49 1
@<TRIPOS>SUBSTRUCTURE
     1 60Y         1 TEMP              0 ****  ****    0 ROOT
