@<TRIPOS>MOLECULE
610
   51    56     1     0     0
SMALL
bcc


@<TRIPOS>ATOM
      1 C1           0.0000     0.0000     0.0000 c3         1 610       0.001000
      2 C2           1.5440     0.0000     0.0000 c3         1 610       0.015000
      3 C3           1.9200     0.0000     1.4980 c3         1 610       0.060000
      4 O4           0.7720    -0.5670     2.1660 os         1 610      -0.250000
      5 C5          -0.3750     0.0010     1.4980 DU         1 610       0.120000
      6 C6          -1.5950    -0.8530     1.7340 c2         1 610      -0.144000
      7 N7           3.1050    -0.8310     1.7280 na         1 610       0.279000
      8 O8          -0.5000     1.1750    -0.6420 oh         1 610      -0.277000
      9 O9           2.0460     1.1740    -0.6420 oh         1 610      -0.268000
     10 C10         -1.5540    -1.8270     2.6080 c2         1 610      -0.108000
     11 C11          3.1100    -2.1390     2.1070 c2         1 610      -0.178000
     12 N12          4.3350    -2.5670     2.2190 n2         1 610      -0.066000
     13 C13         -2.7730    -2.6810     2.8440 DU         1 610       0.104000
     14 N14         -2.4270    -4.0910     2.6500 ns         1 610      -0.062000
     15 C15         -3.3670    -5.0440     2.8090 c2         1 610       0.272000
     16 C16         -3.0180    -6.4640     2.6140 ca         1 610      -0.171000
     17 C17         -3.9930    -7.4560     2.7770 ca         1 610       0.180000
     18 C18         -3.6520    -8.7930     2.5910 ca         1 610       0.004000
     19 C19         -2.3560    -9.1340     2.2440 ca         1 610      -0.034000
     20 C20         -1.3920    -8.1520     2.0810 ca         1 610      -0.410000
     21 C21         -1.7150    -6.8250     2.2580 ca         1 610       0.005000
     22 N22         -0.0100    -8.5320     1.7110 no         1 610       1.305000
     23 O23         -5.2620    -7.1170     3.1170 oh         1 610      -0.201000
     24 O24         -4.5920    -9.7620     2.7480 oh         1 610      -0.224000
     25 O25         -4.5030    -4.7330     3.1130 o          1 610      -0.390000
     26 O26          0.2770    -9.7040     1.5500 o          1 610      -0.597000
     27 O27          0.8390    -7.6700     1.5670 o          1 610      -0.597000
     28 C28          4.4120    -0.4340     1.5930 c2         1 610      -0.167000
     29 C29          5.1930    -1.5620     1.9180 c2         1 610      -0.185000
     30 C30          6.5830    -1.4390     1.8670 c2         1 610       0.042000
     31 N31          7.1020    -0.2730     1.5220 n2         1 610      -0.118000
     32 C32          6.3350     0.7630     1.2300 c2         1 610      -0.035000
     33 N33          5.0200     0.6930     1.2520 n2         1 610      -0.077000
     34 H1          -0.3770    -0.8930    -0.4830 h1         1 610       0.068000
     35 H2           1.9210    -0.8940    -0.4830 h1         1 610       0.061000
     36 H3           2.0910     1.0130     1.8410 h2         1 610       0.109000
     37 H5          -0.5450     1.0140     1.8410 ha         1 610       0.082000
     38 H6          -1.2720    -0.0540     2.3900 DU         1 610       0.064000
     39 HO8         -1.1080     0.9280    -1.3190 ho         1 610       0.190000
     40 HO9          2.3800     0.9480    -1.4940 ho         1 610       0.194000
     41 H10         -2.4070    -1.5240     3.2030 DU         1 610       0.017000
     42 H11          2.2250    -2.7360     2.2900 h5         1 610       0.172000
     43 H13         -3.1270    -2.5330     3.8570 ha         1 610       0.071000
     44 H13A        -3.5510    -2.4000     2.1450 ha         1 610       0.071000
     45 HN14        -1.4880    -4.3490     2.4180 hn         1 610       0.112000
     46 H19         -2.0930   -10.1760     2.1010 ha         1 610       0.143000
     47 H21         -0.9570    -6.0620     2.1290 ha         1 610       0.134000
     48 HO23        -5.8340    -7.2650     2.3830 ho         1 610       0.211000
     49 HO24        -4.7490   -10.1850     1.9210 ho         1 610       0.203000
     50 H30          7.2220    -2.2810     2.1040 h4         1 610       0.129000
     51 H32          6.8040     1.6990     0.9530 h5         1 610       0.138000
@<TRIPOS>BOND
     1     1     2 1   
     2     1     5 1   
     3     1     8 1   
     4     1    34 1   
     5     2     3 1   
     6     2     9 1   
     7     2    35 1   
     8     3     4 1   
     9     3     7 1   
    10     3    36 1   
    11     4     5 1   
    12     5     6 1   
    13     5    37 1   
    14     5    38 1   
    15     6    10 1   
    16     6    38 1   
    17     7    11 1   
    18     7    28 1   
    19     8    39 1   
    20     9    40 1   
    21    10    13 1   
    22    10    41 1   
    23    11    12 1   
    24    11    42 1   
    25    12    29 1   
    26    13    14 1   
    27    13    41 1   
    28    13    43 1   
    29    13    44 1   
    30    14    15 1   
    31    14    45 1   
    32    15    16 1   
    33    15    25 1   
    34    16    17 1   
    35    16    21 1   
    36    17    18 1   
    37    17    23 1   
    38    18    19 1   
    39    18    24 1   
    40    19    20 1   
    41    19    46 1   
    42    20    21 1   
    43    20    22 1   
    44    21    47 1   
    45    22    26 1   
    46    22    27 1   
    47    23    48 1   
    48    24    49 1   
    49    28    29 1   
    50    28    33 1   
    51    29    30 1   
    52    30    31 1   
    53    30    50 1   
    54    31    32 1   
    55    32    33 1   
    56    32    51 1   
@<TRIPOS>SUBSTRUCTURE
     1 610         1 TEMP              0 ****  ****    0 ROOT
