@<TRIPOS>MOLECULE
molecule
   51    54     1     0     0
SMALL
bcc


@<TRIPOS>ATOM
      1 C1           0.0000     0.0000     0.0000 c3         1 610       0.097100
      2 C2           1.5440     0.0000     0.0000 c3         1 610       0.091100
      3 C3           1.9200     0.0000     1.4980 c3         1 610       0.255800
      4 O4           0.7720    -0.5670     2.1660 os         1 610      -0.420600
      5 C5          -0.3750     0.0010     1.4980 c3         1 610       0.160300
      6 C6          -1.5950    -0.8530     1.7340 c2         1 610      -0.167200
      7 N7           3.1050    -0.8310     1.7280 na         1 610      -0.259000
      8 O8          -0.5000     1.1750    -0.6420 oh         1 610      -0.568800
      9 O9           2.0460     1.1740    -0.6420 oh         1 610      -0.559800
     10 C10         -1.5540    -1.8270     2.6080 c2         1 610      -0.179200
     11 C11          3.1100    -2.1390     2.1070 cc         1 610       0.450700
     12 N12          4.3350    -2.5670     2.2190 nd         1 610      -0.584100
     13 C13         -2.7730    -2.6810     2.8440 c3         1 610       0.147200
     14 N14         -2.4270    -4.0910     2.6500 ns         1 610      -0.582900
     15 C15         -3.3670    -5.0440     2.8090 c          1 610       0.672700
     16 C16         -3.0180    -6.4640     2.6140 ca         1 610      -0.161600
     17 C17         -3.9930    -7.4560     2.7770 ca         1 610       0.194100
     18 C18         -3.6520    -8.7930     2.5910 ca         1 610       0.056100
     19 C19         -2.3560    -9.1340     2.2440 ca         1 610      -0.087000
     20 C20         -1.3920    -8.1520     2.0810 ca         1 610      -0.161200
     21 C21         -1.7150    -6.8250     2.2580 ca         1 610      -0.050000
     22 N22         -0.0100    -8.5320     1.7110 no         1 610       0.295200
     23 O23         -5.2620    -7.1170     3.1170 oh         1 610      -0.466100
     24 O24         -4.5920    -9.7620     2.7480 oh         1 610      -0.490100
     25 O25         -4.5030    -4.7330     3.1130 o          1 610      -0.574100
     26 O26          0.2770    -9.7040     1.5500 o          1 610      -0.199500
     27 O27          0.8390    -7.6700     1.5670 o          1 610      -0.199500
     28 C28          4.4120    -0.4340     1.5930 ca         1 610       0.443800
     29 C29          5.1930    -1.5620     1.9180 ca         1 610      -0.152200
     30 C30          6.5830    -1.4390     1.8670 ca         1 610       0.517200
     31 N31          7.1020    -0.2730     1.5220 nb         1 610      -0.747000
     32 C32          6.3350     0.7630     1.2300 ca         1 610       0.691900
     33 N33          5.0200     0.6930     1.2520 nb         1 610      -0.737000
     34 H1          -0.3770    -0.8930    -0.4830 h1         1 610       0.054700
     35 H2           1.9210    -0.8940    -0.4830 h1         1 610       0.058700
     36 H3           2.0910     1.0130     1.8410 h2         1 610       0.113700
     37 H5          -0.5450     1.0140     1.8410 h1         1 610       0.091700
     38 H6          -2.5060    -0.6620     1.1800 ha         1 610       0.144000
     39 HO8         -1.0610     0.9270    -1.3580 ho         1 610       0.406000
     40 HO9          2.3830     0.9470    -1.4930 ho         1 610       0.411000
     41 H10         -0.6430    -2.0190     3.1620 ha         1 610       0.148000
     42 H11          2.2250    -2.7360     2.2900 h5         1 610       0.087800
     43 H13         -3.1270    -2.5320     3.8570 h1         1 610       0.063200
     44 H13A        -3.5510    -2.4000     2.1450 h1         1 610       0.063200
     45 HN14        -1.4890    -4.3480     2.4130 hn         1 610       0.316500
     46 H19         -2.0930   -10.1760     2.1010 ha         1 610       0.178000
     47 H21         -0.9570    -6.0620     2.1290 ha         1 610       0.164000
     48 HO23        -5.4350    -7.3940     4.0020 ho         1 610       0.436000
     49 HO24        -4.3630   -10.3060     3.4840 ho         1 610       0.425000
     50 H30          7.2220    -2.2810     2.1040 h4         1 610       0.044100
     51 H32          6.8040     1.6990     0.9530 h5         1 610       0.066100
@<TRIPOS>BOND
     1     1     2 1   
     2     1     5 1   
     3     1     8 1   
     4     2     3 1   
     5     2     9 1   
     6     3     4 1   
     7     3     7 1   
     8     4     5 1   
     9     5     6 1   
    10     6    10 2   
    11     7    11 1   
    12     7    28 1   
    13    10    13 1   
    14    11    12 2   
    15    12    29 1   
    16    13    14 1   
    17    14    15 1   
    18    15    16 1   
    19    15    25 2   
    20    16    17 ar  
    21    16    21 ar  
    22    17    18 ar  
    23    17    23 1   
    24    18    19 ar  
    25    18    24 1   
    26    19    20 ar  
    27    20    21 ar  
    28    20    22 1   
    29    22    26 1   
    30    22    27 1   
    31    28    29 ar  
    32    28    33 ar  
    33    29    30 ar  
    34    30    31 ar  
    35    31    32 ar  
    36    32    33 ar  
    37     1    34 1   
    38     2    35 1   
    39     3    36 1   
    40     5    37 1   
    41     6    38 1   
    42     8    39 1   
    43     9    40 1   
    44    10    41 1   
    45    11    42 1   
    46    13    43 1   
    47    13    44 1   
    48    14    45 1   
    49    19    46 1   
    50    21    47 1   
    51    23    48 1   
    52    24    49 1   
    53    30    50 1   
    54    32    51 1   
@<TRIPOS>SUBSTRUCTURE
     1 610         1 TEMP              0 ****  ****    0 ROOT
