@<TRIPOS>MOLECULE
molecule
   50    52     1     0     0
SMALL
bcc


@<TRIPOS>ATOM
      1 C1           0.0000     0.0000     0.0000 c3         1 611       0.121100
      2 C2           1.5450     0.0000     0.0000 c3         1 611       0.121100
      3 C3           1.9190     0.0000     1.4990 c3         1 611       0.183200
      4 O4           0.7720    -0.5670     2.1670 os         1 611      -0.399600
      5 C5          -0.3760    -0.0000     1.4980 c3         1 611       0.149300
      6 C6          -1.5950    -0.8540     1.7330 c2         1 611      -0.167200
      7 S7           3.3870    -1.0280     1.7830 ss         1 611      -0.213000
      8 O8          -0.5010     1.1740    -0.6420 oh         1 611      -0.569800
      9 O9           2.0460     1.1750    -0.6410 oh         1 611      -0.566800
     10 C10         -1.5540    -1.8290     2.6080 c2         1 611      -0.178200
     11 C11          3.7240    -0.7730     3.4940 ca         1 611       0.069900
     12 C12         -2.7730    -2.6830     2.8420 c3         1 611       0.147200
     13 N13         -2.4260    -4.0930     2.6480 ns         1 611      -0.581900
     14 C14         -3.3660    -5.0460     2.8060 c          1 611       0.672700
     15 C15         -3.0170    -6.4660     2.6100 ca         1 611      -0.164600
     16 C16         -3.9900    -7.4590     2.7740 ca         1 611       0.197100
     17 C17         -3.6490    -8.7950     2.5870 ca         1 611       0.052100
     18 C18         -2.3530    -9.1370     2.2400 ca         1 611      -0.081000
     19 C19         -1.3900    -8.1540     2.0790 ca         1 611      -0.164200
     20 C20         -1.7130    -6.8270     2.2560 ca         1 611      -0.047000
     21 N21         -0.0070    -8.5310     1.7090 no         1 611       0.295200
     22 O22         -5.2590    -7.1200     3.1140 oh         1 611      -0.476100
     23 O23         -4.5890    -9.7660     2.7440 oh         1 611      -0.503100
     24 O24         -4.5010    -4.7360     3.1100 o          1 611      -0.576100
     25 O25          0.2820    -9.7040     1.5470 o          1 611      -0.201000
     26 O26          0.8420    -7.6700     1.5660 o          1 611      -0.201000
     27 C27          4.8030    -1.4070     4.1130 ca         1 611      -0.250800
     28 C28          5.0320    -1.1810     5.4530 ca         1 611       0.432200
     29 N29          4.2470    -0.3780     6.1490 nb         1 611      -0.695000
     30 C30          3.2170     0.2390     5.6000 ca         1 611       0.432200
     31 C31          2.9230     0.0710     4.2630 ca         1 611      -0.250800
     32 H1          -0.3770    -0.8930    -0.4830 h1         1 611       0.055700
     33 H2           1.9220    -0.8930    -0.4830 h1         1 611       0.059700
     34 H3           2.0900     1.0130     1.8420 h2         1 611       0.092700
     35 H5          -0.5470     1.0130     1.8420 h1         1 611       0.083700
     36 H6          -2.5060    -0.6620     1.1780 ha         1 611       0.139000
     37 HO8         -1.0180     0.9270    -1.3910 ho         1 611       0.405000
     38 HO9          2.7540     0.9400    -1.2190 ho         1 611       0.407000
     39 H10         -0.6430    -2.0210     3.1630 ha         1 611       0.154000
     40 H12         -3.1290    -2.5340     3.8540 h1         1 611       0.061700
     41 H12A        -3.5500    -2.4030     2.1410 h1         1 611       0.061700
     42 HN13        -1.4820    -4.3520     2.4370 hn         1 611       0.319500
     43 H18         -2.0900   -10.1780     2.0970 ha         1 611       0.178000
     44 H20         -0.9560    -6.0630     2.1280 ha         1 611       0.167000
     45 HO22        -5.4350    -7.4030     3.9960 ho         1 611       0.445000
     46 HO23        -4.8190   -10.1200     1.9010 ho         1 611       0.434000
     47 H27          5.4510    -2.0660     3.5480 ha         1 611       0.148000
     48 H28          5.8670    -1.6680     5.9430 h4         1 611       0.026600
     49 H30          2.5990     0.8910     6.2060 h4         1 611       0.026600
     50 H31          2.0770     0.5800     3.8190 ha         1 611       0.148000
@<TRIPOS>BOND
     1     1     2 1
     2     1     5 1
     3     1     8 1
     4     2     3 1
     5     2     9 1
     6     3     4 1
     7     3     7 1
     8     4     5 1
     9     5     6 1
    10     6    10 2
    11     7    11 1
    12    10    12 1
    13    11    27 ar
    14    11    31 ar
    15    12    13 1
    16    13    14 1
    17    14    15 1
    18    14    24 2
    19    15    16 ar
    20    15    20 ar
    21    16    17 ar
    22    16    22 1
    23    17    18 ar
    24    17    23 1
    25    18    19 ar
    26    19    20 ar
    27    19    21 1
    28    21    25 1
    29    21    26 1
    30    27    28 ar
    31    28    29 ar
    32    29    30 ar
    33    30    31 ar
    34     1    32 1
    35     2    33 1
    36     3    34 1
    37     5    35 1
    38     6    36 1
    39     8    37 1
    40     9    38 1
    41    10    39 1
    42    12    40 1
    43    12    41 1
    44    13    42 1
    45    18    43 1
    46    20    44 1
    47    22    45 1
    48    23    46 1
    49    27    47 1
    50    28    48 1
    51    30    49 1
    52    31    50 1
@<TRIPOS>SUBSTRUCTURE
     1 611         1 TEMP              0 ****  ****    0 ROOT
