@<TRIPOS>MOLECULE
611
   50    54     1     0     0
SMALL
bcc


@<TRIPOS>ATOM
      1 C1           0.0000     0.0000     0.0000 c3         1 611       0.011000
      2 C2           1.5450     0.0000     0.0000 c3         1 611       0.053000
      3 C3           1.9190     0.0000     1.4990 c3         1 611      -0.049000
      4 O4           0.7720    -0.5670     2.1670 os         1 611      -0.236000
      5 C5          -0.3760    -0.0000     1.4980 DU         1 611       0.143000
      6 C6          -1.5950    -0.8540     1.7330 c2         1 611      -0.161000
      7 S7           3.3870    -1.0280     1.7830 ss         1 611       0.107000
      8 O8          -0.5010     1.1740    -0.6420 oh         1 611      -0.269000
      9 O9           2.0460     1.1750    -0.6410 oh         1 611      -0.272000
     10 C10         -1.5540    -1.8290     2.6080 c2         1 611      -0.057000
     11 C11          3.7240    -0.7730     3.4940 c2         1 611      -0.140000
     12 C12         -2.7730    -2.6830     2.8420 DU         1 611       0.040000
     13 N13         -2.4260    -4.0930     2.6480 ns         1 611      -0.062000
     14 C14         -3.3660    -5.0460     2.8060 c2         1 611       0.278000
     15 C15         -3.0170    -6.4660     2.6100 ca         1 611      -0.175000
     16 C16         -3.9900    -7.4590     2.7740 ca         1 611       0.185000
     17 C17         -3.6490    -8.7950     2.5870 ca         1 611       0.002000
     18 C18         -2.3530    -9.1370     2.2400 ca         1 611      -0.027000
     19 C19         -1.3900    -8.1540     2.0790 ca         1 611      -0.412000
     20 C20         -1.7130    -6.8270     2.2560 ca         1 611       0.007000
     21 N21         -0.0070    -8.5310     1.7090 no         1 611       1.304000
     22 O22         -5.2590    -7.1200     3.1140 oh         1 611      -0.211000
     23 O23         -4.5890    -9.7660     2.7440 oh         1 611      -0.239000
     24 O24         -4.5010    -4.7360     3.1100 o          1 611      -0.376000
     25 O25          0.2820    -9.7040     1.5470 o          1 611      -0.597500
     26 O26          0.8420    -7.6700     1.5660 o          1 611      -0.597500
     27 C27          4.8030    -1.4070     4.1130 c2         1 611      -0.149500
     28 C28          5.0320    -1.1810     5.4530 c2         1 611      -0.047500
     29 N29          4.2470    -0.3780     6.1490 n2         1 611      -0.058000
     30 C30          3.2170     0.2390     5.6000 c2         1 611      -0.047500
     31 C31          2.9230     0.0710     4.2630 c2         1 611      -0.149500
     32 H1          -0.3770    -0.8930    -0.4830 h1         1 611       0.063000
     33 H2           1.9220    -0.8930    -0.4830 h1         1 611       0.068000
     34 H3           2.0900     1.0130     1.8420 h2         1 611       0.107000
     35 H5          -0.5470     1.0130     1.8420 ha         1 611       0.067000
     36 H6          -0.7420    -1.1560     1.1370 DU         1 611       0.039000
     37 HO8         -1.0390     0.9260    -1.3760 ho         1 611       0.190000
     38 HO9          2.7600     0.9410    -1.2110 ho         1 611       0.193000
     39 H10         -1.8750    -2.6300     1.9520 DU         1 611       0.008000
     40 H12         -3.1290    -2.5340     3.8540 ha         1 611       0.074500
     41 H12A        -3.5500    -2.4030     2.1410 ha         1 611       0.074500
     42 HN13        -1.4800    -4.3520     2.4470 hn         1 611       0.109000
     43 H18         -2.0900   -10.1780     2.0970 ha         1 611       0.143000
     44 H20         -0.9560    -6.0630     2.1280 ha         1 611       0.133000
     45 HO22        -5.4350    -7.4030     3.9960 ho         1 611       0.222000
     46 HO23        -4.8190   -10.1190     1.9010 ho         1 611       0.214000
     47 H27          5.4510    -2.0660     3.5480 ha         1 611       0.129000
     48 H28          5.8670    -1.6680     5.9430 h4         1 611       0.119000
     49 H30          2.5990     0.8910     6.2060 h4         1 611       0.119000
     50 H31          2.0770     0.5800     3.8190 ha         1 611       0.129000
@<TRIPOS>BOND
     1     1     2 1   
     2     1     5 1   
     3     1     8 1   
     4     1    32 1   
     5     2     3 1   
     6     2     9 1   
     7     2    33 1   
     8     3     4 1   
     9     3     7 1   
    10     3    34 1   
    11     4     5 1   
    12     5     6 1   
    13     5    35 1   
    14     5    36 1   
    15     6    10 1   
    16     6    36 1   
    17     7    11 1   
    18     8    37 1   
    19     9    38 1   
    20    10    12 1   
    21    10    39 1   
    22    11    27 1   
    23    11    31 1   
    24    12    13 1   
    25    12    39 1   
    26    12    40 1   
    27    12    41 1   
    28    13    14 1   
    29    13    42 1   
    30    14    15 1   
    31    14    24 1   
    32    15    16 1   
    33    15    20 1   
    34    16    17 1   
    35    16    22 1   
    36    17    18 1   
    37    17    23 1   
    38    18    19 1   
    39    18    43 1   
    40    19    20 1   
    41    19    21 1   
    42    20    44 1   
    43    21    25 1   
    44    21    26 1   
    45    22    45 1   
    46    23    46 1   
    47    27    28 1   
    48    27    47 1   
    49    28    29 1   
    50    28    48 1   
    51    29    30 1   
    52    30    31 1   
    53    30    49 1   
    54    31    50 1   
@<TRIPOS>SUBSTRUCTURE
     1 611         1 TEMP              0 ****  ****    0 ROOT
