@<TRIPOS>MOLECULE
molecule
   48    49     1     0     0
SMALL
bcc


@<TRIPOS>ATOM
      1 C1           0.0000     0.0000     0.0000 c3         1 612       0.002400
      2 C2           1.5300     0.0000     0.0000 c3         1 612      -0.071400
      3 C3           2.0390     0.0000     1.4430 c3         1 612      -0.077900
      4 C4           1.5300     1.2500     2.1630 c3         1 612      -0.082400
      5 C5          -0.0010     1.2510     2.1620 c3         1 612      -0.077900
      6 C6          -0.5090     1.2500     0.7190 c3         1 612      -0.071400
      7 S           -0.6020    -0.0000    -1.7080 ss         1 612      -0.235700
      8 C7          -0.0770    -1.6040    -2.2160 cc         1 612       0.177200
      9 C12          0.9750    -1.7440    -3.0800 cd         1 612      -0.214400
     10 CF           1.6990    -0.5320    -3.6070 c3         1 612      -0.013500
     11 CH           3.1710    -0.5980    -3.1960 c3         1 612      -0.084100
     12 CI           1.5960    -0.4990    -5.1320 c3         1 612      -0.084100
     13 C11          1.3720    -3.0330    -3.4670 c          1 612       0.707700
     14 O11          2.3070    -3.1820    -4.2350 o          1 612      -0.615500
     15 N8          -0.7180    -2.7260    -1.7450 n          1 612      -0.384000
     16 C9          -0.3160    -3.9510    -2.1340 c          1 612       0.807500
     17 O9          -0.8940    -4.9320    -1.7070 o          1 612      -0.665500
     18 N10          0.7130    -4.1050    -2.9850 ns         1 612      -0.558500
     19 CA          -1.8420    -2.5870    -0.8170 c3         1 612       0.300800
     20 OB          -3.0090    -2.1900    -1.5380 os         1 612      -0.414600
     21 CC          -3.6470    -3.2550    -2.2460 c3         1 612       0.127400
     22 CD          -4.9480    -2.7450    -2.8700 c3         1 612      -0.091100
     23 H1          -0.3590    -0.8830     0.5150 h1         1 612       0.066700
     24 H2           1.8900    -0.8860    -0.5090 hc         1 612       0.055950
     25 H2A          1.8900     0.8860    -0.5090 hc         1 612       0.055950
     26 H3           3.1230     0.0020     1.4420 hc         1 612       0.045950
     27 H3A          1.6750    -0.8830     1.9530 hc         1 612       0.045950
     28 H4           1.8900     2.1340     1.6500 hc         1 612       0.046200
     29 H4A          1.8880     1.2480     3.1860 hc         1 612       0.046200
     30 H5          -0.3610     2.1370     2.6700 hc         1 612       0.045950
     31 H5A         -0.3610     0.3650     2.6710 hc         1 612       0.045950
     32 H6          -1.5930     1.2480     0.7200 hc         1 612       0.055950
     33 H6A         -0.1440     2.1330     0.2090 hc         1 612       0.055950
     34 HF           1.2500     0.3640    -3.1960 hc         1 612       0.075700
     35 HH           3.4940     0.3780    -2.8520 hc         1 612       0.040533
     36 HHA          3.2920    -1.3200    -2.3980 hc         1 612       0.040533
     37 HHB          3.7710    -0.8970    -4.0480 hc         1 612       0.040533
     38 HI           1.8940     0.4780    -5.4930 hc         1 612       0.040533
     39 HIA          2.2470    -1.2540    -5.5540 hc         1 612       0.040533
     40 HIB          0.5730    -0.6970    -5.4290 hc         1 612       0.040533
     41 HN10         0.9940    -5.0250    -3.2610 hn         1 612       0.362500
     42 HA          -2.0260    -3.5370    -0.3280 h2         1 612       0.084700
     43 HAA         -1.6050    -1.8380    -0.0720 h2         1 612       0.084700
     44 HC          -2.9890    -3.6150    -3.0260 h1         1 612       0.034200
     45 HCA         -3.8690    -4.0630    -1.5590 h1         1 612       0.034200
     46 HD          -5.5840    -2.3350    -2.0960 hc         1 612       0.045367
     47 HDA         -4.7210    -1.9750    -3.5980 hc         1 612       0.045367
     48 HDB         -5.4580    -3.5660    -3.3600 hc         1 612       0.045367
@<TRIPOS>BOND
     1     7     1 1
     2     1     6 1
     3     1     2 1
     4     1    23 1
     5     2     3 1
     6     2    24 1
     7     2    25 1
     8     3     4 1
     9     3    26 1
    10     3    27 1
    11     5     4 1
    12     4    28 1
    13     4    29 1
    14     6     5 1
    15     5    30 1
    16     5    31 1
    17     6    32 1
    18     6    33 1
    19     8     7 1
    20    15     8 1
    21     9     8 2
    22    13     9 1
    23     9    10 1
    24    10    12 1
    25    10    11 1
    26    10    34 1
    27    11    35 1
    28    11    36 1
    29    11    37 1
    30    12    38 1
    31    12    39 1
    32    12    40 1
    33    14    13 2
    34    18    13 1
    35    16    15 1
    36    15    19 1
    37    17    16 2
    38    18    16 1
    39    18    41 1
    40    19    20 1
    41    19    42 1
    42    19    43 1
    43    21    20 1
    44    21    22 1
    45    21    44 1
    46    21    45 1
    47    22    46 1
    48    22    47 1
    49    22    48 1
@<TRIPOS>SUBSTRUCTURE
     1 612         1 TEMP              0 ****  ****    0 ROOT
