@<TRIPOS>MOLECULE
molecule
   32    33     1     0     0
SMALL
bcc


@<TRIPOS>ATOM
      1 C1           0.0000     0.0000     0.0000 ca         1 613      -0.151000
      2 N1          -2.0910    -0.0020     1.2070 nh         1 613      -0.592000
      3 Cl1          3.8100     0.0000     1.1940 cl         1 613      -0.081400
      4 C2           1.3810     0.0000     0.0000 ca         1 613      -0.092500
      5 N2          -4.7070    -0.8490     1.6580 nh         1 613      -0.769600
      6 C3           2.0740     0.0000     1.1970 ca         1 613       0.019400
      7 N3          -6.1640    -1.5710     3.3130 n2         1 613      -0.796100
      8 C4           1.3860    -0.0010     2.3990 ca         1 613      -0.092500
      9 N4          -6.3400    -2.5220     1.2050 nz         1 613      -0.806600
     10 C5           0.0050    -0.0020     2.4040 ca         1 613      -0.151000
     11 C6          -0.6940    -0.0020     1.2040 ca         1 613       0.075600
     12 C7          -2.6140    -0.0030     2.5800 c3         1 613       0.147800
     13 C8          -4.1360     0.1780     2.5430 c3         1 613       0.228800
     14 C9          -4.1390    -1.0000     0.3100 c3         1 613       0.228800
     15 C10         -2.6180    -1.1360     0.4350 c3         1 613       0.147800
     16 C11         -5.7440    -1.6460     2.0810 c2         1 613       0.696100
     17 H1          -0.5420     0.0000    -0.9380 ha         1 613       0.139000
     18 H2           1.9220     0.0010    -0.9380 ha         1 613       0.156000
     19 HN3         -6.9190    -2.1510     3.6220 hn         1 613       0.438400
     20 H4           1.9310    -0.0010     3.3350 ha         1 613       0.156000
     21 HN4         -6.6080    -2.0330     0.3740 hn         1 613       0.466800
     22 HN4A        -7.1520    -2.9220     1.6320 hn         1 613       0.466800
     23 H5          -0.5330    -0.0030     3.3440 ha         1 613       0.139000
     24 H7          -2.3750    -0.9460     3.0560 h1         1 613       0.066950
     25 H7A         -2.1670     0.8130     3.1360 h1         1 613       0.066950
     26 H8          -4.3750     1.1620     2.1590 h1         1 613       0.072700
     27 H8A         -4.5390     0.0620     3.5420 h1         1 613       0.072700
     28 H9          -4.3780    -0.1270    -0.2850 h1         1 613       0.072700
     29 H9A         -4.5450    -1.8890    -0.1570 h1         1 613       0.072700
     30 H10         -2.1740    -1.1370    -0.5530 h1         1 613       0.066950
     31 H10A        -2.3800    -2.0610     0.9460 h1         1 613       0.066950
     32 H43         -5.7040    -3.2650     0.9910 hn         1 613       0.466800
@<TRIPOS>BOND
     1     1     4 ar  
     2     1    11 ar  
     3     2    11 1   
     4     2    12 1   
     5     2    15 1   
     6     3     6 1   
     7     4     6 ar  
     8     5    13 1   
     9     5    14 1   
    10     5    16 1   
    11     6     8 ar  
    12     7    16 2   
    13     8    10 ar  
    14     9    16 1   
    15    10    11 ar  
    16    12    13 1   
    17    14    15 1   
    18     1    17 1   
    19     4    18 1   
    20     7    19 1   
    21     8    20 1   
    22     9    21 1   
    23     9    22 1   
    24    10    23 1   
    25    12    24 1   
    26    12    25 1   
    27    13    26 1   
    28    13    27 1   
    29    14    28 1   
    30    14    29 1   
    31    15    30 1   
    32    15    31 1   
    33    32     9 1   
@<TRIPOS>SUBSTRUCTURE
     1 613         1 TEMP              0 ****  ****    0 ROOT
