@<TRIPOS>MOLECULE
614
   63    67     1     0     0
SMALL
bcc


@<TRIPOS>ATOM
      1 N1           0.0000     0.0000     0.0000 nc         1 614      -0.592300
      2 N2           1.3950     0.0000     0.0000 n          1 614       0.154200
      3 C3          -0.7040    -0.0000     1.0990 cd         1 614       0.481800
      4 C4           2.1050     0.0000     1.1470 c          1 614       0.607100
      5 C5           1.3860    -0.0010     2.4270 ca         1 614      -0.126600
      6 C6          -0.0260    -0.0010     2.4010 ca         1 614      -0.144900
      7 C7          -2.7360     0.0000    -0.1980 cc         1 614      -0.168700
      8 N8          -2.0950    -0.0000     1.0370 nu         1 614      -0.220600
      9 N9          -4.0790     0.0010    -0.4070 na         1 614       0.402400
     10 C10         -2.1330     0.0060    -1.4190 cd         1 614      -0.366300
     11 N11         -4.2970     0.0080    -1.7910 nc         1 614      -0.660800
     12 C12         -3.1360     0.0110    -2.3930 cd         1 614       0.381600
     13 N13          2.2890     1.3850     6.5730 n3         1 614      -0.526600
     14 N14          2.2050     3.5730     8.3950 n3         1 614      -0.542600
     15 C15         -0.7390    -0.0020     3.6010 ca         1 614      -0.102000
     16 C16          2.1080     0.0000    -1.2790 c3         1 614       0.027700
     17 C17          2.0570    -0.0010     3.6500 ca         1 614      -0.003000
     18 O18          3.3230    -0.0010     1.1210 o          1 614      -0.683500
     19 C19          1.3320    -0.0010     4.8210 ca         1 614      -0.092300
     20 C20          2.0550     0.0000     6.1450 c3         1 614       0.209100
     21 O21          2.0340    -0.0050    -4.1270 os         1 614      -0.408600
     22 C22          3.1930     1.4320     7.7320 c3         1 614       0.101800
     23 C23          1.0210     2.0660     6.8710 c3         1 614       0.101800
     24 C24          1.3010     3.5250     7.2360 c3         1 614       0.158300
     25 C25          3.4740     2.8920     8.0980 c3         1 614       0.158300
     26 C26         -0.0560    -0.0030     4.7970 ca         1 614      -0.074000
     27 C27          1.7270    -1.2500    -2.0780 c3         1 614      -0.086900
     28 C28          1.7180     1.2450    -2.0830 c3         1 614      -0.086900
     29 C29          1.5660     2.9970     9.5860 c3         1 614       0.169100
     30 C30          2.4150    -1.2020    -3.4450 c3         1 614       0.220400
     31 C31          2.4070     1.1960    -3.4500 c3         1 614       0.220400
     32 C32         -2.9160     0.0180    -3.8840 c3         1 614      -0.004400
     33 HN8         -2.6340    -0.0230     1.8800 hn         1 614       0.280800
     34 H10         -1.0660     0.0070    -1.6030 ha         1 614       0.192000
     35 H15         -1.8220    -0.0040     3.5920 ha         1 614       0.104000
     36 H16          3.1770     0.0050    -1.1040 h1         1 614       0.074700
     37 H17          3.1320    -0.1340     3.6780 ha         1 614       0.136000
     38 H20          3.0050    -0.5100     6.0380 h1         1 614       0.015700
     39 H20A         1.4520    -0.5100     6.8860 h1         1 614       0.015700
     40 H22          4.1240     0.9380     7.4820 h1         1 614       0.018950
     41 H22A         2.7270     0.9330     8.5730 h1         1 614       0.018950
     42 H23          0.5350     1.5730     7.7050 h1         1 614       0.018950
     43 H23A         0.3790     2.0300     5.9990 h1         1 614       0.018950
     44 H24          1.7680     4.0240     6.3950 h1         1 614       0.030700
     45 H24A         0.3700     4.0200     7.4860 h1         1 614       0.030700
     46 H25          4.1140     2.9280     8.9710 h1         1 614       0.030700
     47 H25A         3.9610     3.3850     7.2650 h1         1 614       0.030700
     48 H26         -0.6080    -0.0030     5.7290 ha         1 614       0.110000
     49 H27          0.6530    -1.2770    -2.2160 hc         1 614       0.035950
     50 H27A         2.0510    -2.1330    -1.5420 hc         1 614       0.035950
     51 H28          2.0350     2.1330    -1.5500 hc         1 614       0.035950
     52 H28A         0.6430     1.2630    -2.2210 hc         1 614       0.035950
     53 H29          1.3440     1.9520     9.4070 h1         1 614       0.004033
     54 H29A         2.2350     3.0850    10.4330 h1         1 614       0.004033
     55 H29B         0.6460     3.5300     9.7950 h1         1 614       0.004033
     56 H30          2.1130    -2.0620    -4.0300 h1         1 614       0.008700
     57 H30A         3.4900    -1.2120    -3.3070 h1         1 614       0.008700
     58 H31          2.0990     2.0520    -4.0390 h1         1 614       0.008700
     59 H31A         3.4810     1.2140    -3.3120 h1         1 614       0.008700
     60 H32         -2.2480     0.8300    -4.1460 hc         1 614       0.011033
     61 H32A        -2.4760    -0.9240    -4.1890 hc         1 614       0.011033
     62 H32B        -3.8650     0.1540    -4.3880 hc         1 614       0.011033
     63 HN9         -4.7850    -0.0030     0.3020 hn         1 614       0.143700
@<TRIPOS>BOND
     1     1     2 1   
     2     1     3 2   
     3     2     4 1   
     4     2    16 1   
     5     3     6 1   
     6     3     8 1   
     7     4     5 1   
     8     4    18 2   
     9     5     6 ar  
    10     5    17 ar  
    11     6    15 ar  
    12     7     8 1   
    13     7     9 1   
    14     7    10 2   
    15     8    33 1   
    16     9    11 1   
    17     9    63 1   
    18    10    12 1   
    19    10    34 1   
    20    11    12 2   
    21    12    32 1   
    22    13    20 1   
    23    13    22 1   
    24    13    23 1   
    25    14    24 1   
    26    14    25 1   
    27    14    29 1   
    28    15    26 ar  
    29    15    35 1   
    30    16    27 1   
    31    16    28 1   
    32    16    36 1   
    33    17    19 ar  
    34    17    37 1   
    35    19    20 1   
    36    19    26 ar  
    37    20    38 1   
    38    20    39 1   
    39    21    30 1   
    40    21    31 1   
    41    22    25 1   
    42    22    40 1   
    43    22    41 1   
    44    23    24 1   
    45    23    42 1   
    46    23    43 1   
    47    24    44 1   
    48    24    45 1   
    49    25    46 1   
    50    25    47 1   
    51    26    48 1   
    52    27    30 1   
    53    27    49 1   
    54    27    50 1   
    55    28    31 1   
    56    28    51 1   
    57    28    52 1   
    58    29    53 1   
    59    29    54 1   
    60    29    55 1   
    61    30    56 1   
    62    30    57 1   
    63    31    58 1   
    64    31    59 1   
    65    32    60 1   
    66    32    61 1   
    67    32    62 1   
@<TRIPOS>SUBSTRUCTURE
     1 614         1 TEMP              0 ****  ****    0 ROOT
