@<TRIPOS>MOLECULE
molecule
   63    67     1     0     0
SMALL
bcc


@<TRIPOS>ATOM
      1 N1           0.0000     0.0000     0.0000 nc         1 614      -0.510300
      2 N2           1.3950     0.0000     0.0000 n          1 614      -0.201800
      3 C3          -0.7040    -0.0000     1.0990 cd         1 614       0.633800
      4 C4           2.1050     0.0000     1.1470 c          1 614       0.682100
      5 C5           1.3860    -0.0010     2.4270 ca         1 614      -0.119600
      6 C6          -0.0260    -0.0010     2.4010 ca         1 614      -0.142900
      7 C7          -2.7360     0.0000    -0.1980 cc         1 614       0.155300
      8 N8          -2.0950    -0.0000     1.0370 nu         1 614      -0.709600
      9 N9          -4.0790     0.0010    -0.4070 na         1 614      -0.078600
     10 C10         -2.1330     0.0060    -1.4190 cd         1 614      -0.366300
     11 N11         -4.2970     0.0080    -1.7910 nc         1 614      -0.513800
     12 C12         -3.1360     0.0110    -2.3930 cd         1 614       0.355600
     13 N13          2.2890     1.3850     6.5730 n3         1 614      -0.717600
     14 N14          2.2050     3.5730     8.3950 n3         1 614      -0.720600
     15 C15         -0.7390    -0.0020     3.6010 ca         1 614      -0.126000
     16 C16          2.1080     0.0000    -1.2790 c3         1 614       0.137700
     17 C17          2.0570    -0.0010     3.6500 ca         1 614      -0.039000
     18 O18          3.3230    -0.0010     1.1210 o          1 614      -0.640500
     19 C19          1.3320    -0.0010     4.8210 ca         1 614      -0.078300
     20 C20          2.0550     0.0000     6.1450 c3         1 614       0.206100
     21 O21          2.0340    -0.0050    -4.1270 os         1 614      -0.421600
     22 C22          3.1930     1.4320     7.7320 c3         1 614       0.116800
     23 C23          1.0210     2.0660     6.8710 c3         1 614       0.116800
     24 C24          1.3010     3.5250     7.2360 c3         1 614       0.163800
     25 C25          3.4740     2.8920     8.0980 c3         1 614       0.163800
     26 C26         -0.0560    -0.0030     4.7970 ca         1 614      -0.102000
     27 C27          1.7270    -1.2500    -2.0780 c3         1 614      -0.132400
     28 C28          1.7180     1.2450    -2.0830 c3         1 614      -0.132400
     29 C29          1.5660     2.9970     9.5860 c3         1 614       0.142100
     30 C30          2.4150    -1.2020    -3.4450 c3         1 614       0.138400
     31 C31          2.4070     1.1960    -3.4500 c3         1 614       0.138400
     32 C32         -2.9160     0.0180    -3.8840 c3         1 614      -0.110400
     33 HN8         -2.6340    -0.0230     1.8800 hn         1 614       0.455800
     34 H10         -1.0660     0.0070    -1.6030 ha         1 614       0.197000
     35 H15         -1.8220    -0.0040     3.5920 ha         1 614       0.127000
     36 H16          3.1770     0.0050    -1.1040 h1         1 614       0.097700
     37 H17          3.1320    -0.1340     3.6780 ha         1 614       0.167000
     38 H20          3.0050    -0.5100     6.0380 h1         1 614       0.044200
     39 H20A         1.4520    -0.5100     6.8860 h1         1 614       0.044200
     40 H22          4.1240     0.9380     7.4820 h1         1 614       0.038950
     41 H22A         2.7270     0.9330     8.5730 h1         1 614       0.038950
     42 H23          0.5350     1.5730     7.7050 h1         1 614       0.038950
     43 H23A         0.3790     2.0300     5.9990 h1         1 614       0.038950
     44 H24          1.7680     4.0240     6.3950 h1         1 614       0.064200
     45 H24A         0.3700     4.0200     7.4860 h1         1 614       0.064200
     46 H25          4.1140     2.9280     8.9710 h1         1 614       0.064200
     47 H25A         3.9610     3.3850     7.2650 h1         1 614       0.064200
     48 H26         -0.6080    -0.0030     5.7290 ha         1 614       0.136000
     49 H27          0.6530    -1.2770    -2.2160 hc         1 614       0.065200
     50 H27A         2.0510    -2.1330    -1.5420 hc         1 614       0.065200
     51 H28          2.0350     2.1330    -1.5500 hc         1 614       0.065200
     52 H28A         0.6430     1.2630    -2.2210 hc         1 614       0.065200
     53 H29          1.3440     1.9520     9.4070 h1         1 614       0.032700
     54 H29A         2.2350     3.0850    10.4330 h1         1 614       0.032700
     55 H29B         0.6460     3.5300     9.7950 h1         1 614       0.032700
     56 H30          2.1130    -2.0620    -4.0300 h1         1 614       0.049200
     57 H30A         3.4900    -1.2120    -3.3070 h1         1 614       0.049200
     58 H31          2.0990     2.0520    -4.0390 h1         1 614       0.049200
     59 H31A         3.4810     1.2140    -3.3120 h1         1 614       0.049200
     60 H32         -2.2480     0.8300    -4.1460 hc         1 614       0.051033
     61 H32A        -2.4760    -0.9240    -4.1890 hc         1 614       0.051033
     62 H32B        -3.8650     0.1540    -4.3880 hc         1 614       0.051033
     63 HN9         -4.7850    -0.0030     0.3020 hn         1 614       0.320700
@<TRIPOS>BOND
     1     3     1 2   
     2     1     2 1   
     3     4     2 1   
     4     2    16 1   
     5     8     3 1   
     6     6     3 1   
     7     5     4 1   
     8     4    18 2   
     9     6     5 ar  
    10    17     5 ar  
    11    15     6 ar  
    12     8     7 1   
    13     7     9 1   
    14     7    10 2   
    15     8    33 1   
    16     9    11 1   
    17    10    12 1   
    18    10    34 1   
    19    11    12 2   
    20    12    32 1   
    21    20    13 1   
    22    23    13 1   
    23    13    22 1   
    24    24    14 1   
    25    14    29 1   
    26    14    25 1   
    27    26    15 ar  
    28    15    35 1   
    29    28    16 1   
    30    16    27 1   
    31    16    36 1   
    32    19    17 ar  
    33    17    37 1   
    34    26    19 ar  
    35    20    19 1   
    36    20    38 1   
    37    20    39 1   
    38    31    21 1   
    39    21    30 1   
    40    25    22 1   
    41    22    40 1   
    42    22    41 1   
    43    24    23 1   
    44    23    42 1   
    45    23    43 1   
    46    24    44 1   
    47    24    45 1   
    48    25    46 1   
    49    25    47 1   
    50    26    48 1   
    51    27    30 1   
    52    27    49 1   
    53    27    50 1   
    54    28    31 1   
    55    28    51 1   
    56    28    52 1   
    57    29    53 1   
    58    29    54 1   
    59    29    55 1   
    60    30    56 1   
    61    30    57 1   
    62    31    58 1   
    63    31    59 1   
    64    32    60 1   
    65    32    61 1   
    66    32    62 1   
    67     9    63 1   
@<TRIPOS>SUBSTRUCTURE
     1 614         1 TEMP              0 ****  ****    0 ROOT
