@<TRIPOS>MOLECULE
molecule
   61    65     1     0     0
SMALL
bcc


@<TRIPOS>ATOM
      1 C7           0.0000     0.0000     0.0000 ca         1 615       0.095100
      2 C27         -1.2310    -0.3400     8.4290 ca         1 615      -0.149000
      3 C17         -6.3150     0.0020    -1.8510 ca         1 615      -0.144000
      4 C8           1.3870     0.0000     0.0000 ca         1 615      -0.237000
      5 N2           3.0720    -0.6390     7.8260 ns         1 615      -0.483400
      6 O2           2.5730     0.6220     6.0700 o          1 615      -0.607100
      7 O1           2.4710    -3.3270     2.7150 o          1 615      -0.395100
      8 C28         -2.0840    -0.2900     7.3450 ca         1 615      -0.166000
      9 C26          0.1380    -0.3570     8.2350 ca         1 615      -0.138000
     10 N1          -4.7410    -0.0850     1.9490 nb         1 615      -0.730000
     11 C2           2.1390    -0.0040     3.6990 c3         1 615      -0.010100
     12 O3          -0.6810    -0.0000    -1.1760 os         1 615      -0.197900
     13 C4           1.3850     0.0010     2.3940 ca         1 615      -0.166300
     14 C5           0.0020    -0.0080     2.3970 ca         1 615      -0.086000
     15 C6          -0.6920    -0.0040     1.2020 ca         1 615      -0.237000
     16 C9           2.0760     0.0000     1.1980 ca         1 615      -0.086000
     17 C10         -2.1070     0.0010    -1.1000 c3         1 615      -0.153300
     18 C11         -3.0100    -0.0300    -0.2160 ca         1 615       0.105700
     19 C12         -3.4350    -0.0870     2.1390 cp         1 615       0.520800
     20 C13         -2.5360    -0.0590     1.0620 ca         1 615      -0.662300
     21 C14         -5.2610    -0.0560     0.7180 ca         1 615       0.532600
     22 C15         -4.4060    -0.0270    -0.4110 ca         1 615      -0.273300
     23 C16         -4.9610     0.0020    -1.7010 ca         1 615      -0.070000
     24 C18         -7.1580    -0.0260    -0.7410 ca         1 615      -0.068000
     25 C19         -6.6540    -0.0560     0.5220 ca         1 615      -0.199300
     26 C20         -1.5630    -0.2580     6.0530 cp         1 615      -0.117500
     27 C21          2.7150    -1.6900     5.6160 cx         1 615      -0.231700
     28 C22          2.3800    -1.4490     4.1430 cx         1 615      -0.224000
     29 C23          1.3430    -2.0860     5.0680 cx         1 615      -0.099400
     30 O4           3.1350     0.4920     8.6760 oh         1 615      -0.341100
     31 N3           4.2770    -2.0380     2.6660 nz         1 615      -0.681400
     32 C24         -0.1820    -0.2760     5.8630 ca         1 615      -0.166000
     33 C25          0.6610    -0.3250     6.9550 ca         1 615      -0.149000
     34 H27         -1.6350    -0.3650     9.4340 ha         1 615       0.181500
     35 H17         -6.7420     0.0250    -2.8460 ha         1 615       0.148000
     36 H8           1.9290    -0.0010    -0.9380 ha         1 615       0.211500
     37 HN2          3.2230    -1.5550     8.2010 hn         1 615       0.333500
     38 H28         -3.1560    -0.2770     7.4990 ha         1 615       0.158500
     39 H26          0.8040    -0.3950     9.0890 ha         1 615       0.137000
     40 H2           3.0910     0.4970     3.5680 hc         1 615       0.099200
     41 H2A          1.5590     0.5130     4.4530 hc         1 615       0.099200
     42 H5          -0.5370    -0.0110     3.3360 ha         1 615       0.125500
     43 H6          -1.7750    -0.0080     1.2050 ha         1 615       0.211500
     44 H9           3.1600     0.0000     1.1980 ha         1 615       0.125500
     45 H10         -2.4400     0.8860    -0.5720 h1         1 615       0.276700
     46 H10A        -2.4410    -0.8830    -0.5710 h1         1 615       0.276700
     47 H13         -1.4690    -0.0570     1.2450 ha         1 615       0.271000
     48 H16         -4.3170     0.0240    -2.5710 ha         1 615       0.161000
     49 H18         -8.2310    -0.0250    -0.8870 ha         1 615       0.147000
     50 H19         -7.3230    -0.0780     1.3740 ha         1 615       0.164000
     51 H21          3.3870    -2.5190     5.7990 hc         1 615       0.091700
     52 H23          0.5200    -1.4450     5.3600 hc         1 615       0.152200
     53 H23A         1.1840    -3.1490     4.9310 hc         1 615       0.152200
     54 HO4          3.3430     0.2150     9.5530 ho         1 615       0.418000
     55 HN3          4.2640    -2.0120     1.6660 hn         1 615       0.478133
     56 HN3A         4.9270    -2.7340     2.9740 hn         1 615       0.478133
     57 H24          0.2290    -0.2510     4.8610 ha         1 615       0.158500
     58 H25          1.7340    -0.3380     6.8090 ha         1 615       0.181500
     59 H33          4.5510    -1.1420     3.0200 hn         1 615       0.478133
     60 C3           2.7820    -0.4850     6.5200 c          1 615       0.772100
     61 C1           3.0450    -2.3390     3.1240 c          1 615       0.525100
@<TRIPOS>BOND
     1     1     4 ar
     2     1    12 1
     3     1    15 ar
     4     2     8 ar
     5     2     9 ar
     6     3    23 ar
     7     3    24 ar
     8    61     7 2
     9    61    28 1
    10    61    31 1
    11     4    16 ar
    12     5    60 1
    13     5    30 1
    14     6    60 2
    15    60    27 1
    16     8    26 ar
    17     9    33 ar
    18    10    19 ar
    19    10    21 ar
    20    11    13 1
    21    11    28 1
    22    12    17 1
    23    13    14 ar
    24    13    16 ar
    25    14    15 ar
    26    17    18 1
    27    18    20 ar
    28    18    22 ar
    29    19    20 ar
    30    19    26 1
    31    21    22 ar
    32    21    25 ar
    33    22    23 ar
    34    24    25 ar
    35    26    32 ar
    36    27    28 1
    37    27    29 1
    38    28    29 1
    39    32    33 ar
    40     2    34 1
    41     3    35 1
    42     4    36 1
    43     5    37 1
    44     8    38 1
    45     9    39 1
    46    11    40 1
    47    11    41 1
    48    14    42 1
    49    15    43 1
    50    16    44 1
    51    17    45 1
    52    17    46 1
    53    20    47 1
    54    23    48 1
    55    24    49 1
    56    25    50 1
    57    27    51 1
    58    29    52 1
    59    29    53 1
    60    30    54 1
    61    31    55 1
    62    31    56 1
    63    32    57 1
    64    33    58 1
    65    59    31 1
@<TRIPOS>SUBSTRUCTURE
     1 615         1 TEMP              0 ****  ****    0 ROOT
