@<TRIPOS>MOLECULE
molecule
   60    61     1     0     0
SMALL
bcc


@<TRIPOS>ATOM
      1 O5           0.0000     0.0000     0.0000 o          1 616      -0.511100
      2 C30          1.2070     0.0000     0.0000 c          1 616       0.575900
      3 C7           1.9610     0.0000     1.3040 c3         1 616      -0.199700
      4 C27          2.9640    -1.1560     1.3130 c3         1 616      -0.083700
      5 C17          3.6360    -1.2360     2.6850 c3         1 616      -0.085600
      6 C1           2.2330    -2.4680     1.0250 c3         1 616      -0.085600
      7 C8           2.7080     1.3250     1.4610 c3         1 616       0.125700
      8 C29          3.8020     1.4420     0.3800 c3         1 616       0.223500
      9 N2           5.1150     1.0950     0.9290 n7         1 616      -0.901100
     10 S1           6.2080     0.2670     0.0030 s6         1 616       1.323900
     11 O2           7.3040     0.0910     0.8890 o          1 616      -0.622300
     12 O1           5.4450    -0.8300    -0.4810 o          1 616      -0.622300
     13 C3           6.6010     1.4410    -1.3220 c3         1 616      -0.250300
     14 C28          3.7450     2.9430    -0.0100 c3         1 616      -0.125400
     15 C26          2.2290     3.2380     0.1060 c3         1 616       0.096000
     16 N1           1.7790     2.4480     1.2700 n          1 616      -0.501800
     17 C2           0.6960     2.7130     2.0260 c          1 616       0.693300
     18 O3           0.4770     2.0560     3.0260 o          1 616      -0.606100
     19 C4          -0.2210     3.7970     1.6440 ce         1 616      -0.243200
     20 C5          -1.2890     4.0600     2.3910 c2         1 616      -0.074200
     21 C6          -2.2280     5.1710     2.0000 c3         1 616       0.158000
     22 N49         -3.5710     4.6210     1.7750 n3         1 616      -0.660600
     23 C50         -4.4310     5.7480     1.4000 c3         1 616       0.134300
     24 C45         -5.8570     5.2520     1.1530 c3         1 616      -0.077400
     25 C46         -6.4070     4.6380     2.4450 c3         1 616      -0.084400
     26 C47         -5.4500     3.5380     2.9160 c3         1 616      -0.077400
     27 C48         -4.0460     4.1230     3.0690 c3         1 616       0.134300
     28 H30C         1.7480    -0.0300    -0.9380 h4         1 616      -0.013800
     29 HC7          1.2640    -0.1210     2.1240 hc         1 616       0.108700
     30 H27C         3.7160    -0.9870     0.5520 hc         1 616       0.081700
     31 H171         2.8860    -1.4280     3.4440 hc         1 616       0.036867
     32 H172         4.3630    -2.0390     2.6850 hc         1 616       0.036867
     33 H173         4.1340    -0.2980     2.8990 hc         1 616       0.036867
     34 HC11         1.3540    -2.5370     1.6540 hc         1 616       0.036867
     35 HC12         2.8930    -3.3010     1.2340 hc         1 616       0.036867
     36 HC13         1.9360    -2.4940    -0.0160 hc         1 616       0.036867
     37 HC8          3.1580     1.3860     2.4440 h1         1 616       0.078700
     38 H29C         3.5600     0.8190    -0.4730 h1         1 616       0.085700
     39 HN2          5.3650     1.3920     1.8510 hn         1 616       0.461800
     40 HC31         7.5180     1.1380    -1.8120 h1         1 616       0.098700
     41 HC32         6.7270     2.4310    -0.9010 h1         1 616       0.098700
     42 HC33         5.7930     1.4550    -2.0430 h1         1 616       0.098700
     43 H281         4.3100     3.5450     0.6910 hc         1 616       0.060200
     44 H282         4.0910     3.0900    -1.0260 hc         1 616       0.060200
     45 H261         2.0640     4.2940     0.2820 h1         1 616       0.052200
     46 H262         1.7140     2.9130    -0.7900 h1         1 616       0.052200
     47 HC4         -0.0260     4.3830     0.7540 ha         1 616       0.127000
     48 HC5         -1.4840     3.4750     3.2820 ha         1 616       0.156000
     49 HC61        -2.2670     5.9070     2.7940 h1         1 616       0.044700
     50 HC62        -1.8730     5.6400     1.0900 h1         1 616       0.044700
     51 H501        -4.4390     6.4760     2.2020 h1         1 616       0.036950
     52 H502        -4.0490     6.2050     0.4950 h1         1 616       0.036950
     53 H451        -5.8480     4.5010     0.3720 hc         1 616       0.050700
     54 H452        -6.4830     6.0850     0.8550 hc         1 616       0.050700
     55 H461        -6.4800     5.4040     3.2070 hc         1 616       0.040700
     56 H462        -7.3840     4.2110     2.2560 hc         1 616       0.040700
     57 H471        -5.7870     3.1520     3.8710 hc         1 616       0.050700
     58 H472        -5.4300     2.7390     2.1840 hc         1 616       0.050700
     59 H481        -4.0740     4.9400     3.7800 h1         1 616       0.036950
     60 H482        -3.3730     3.3520     3.4260 h1         1 616       0.036950
@<TRIPOS>BOND
     1     1     2 2
     2     2     3 1
     3     2    28 1
     4     3     4 1
     5     3     7 1
     6     3    29 1
     7     4     5 1
     8     4     6 1
     9     4    30 1
    10     5    31 1
    11     5    32 1
    12     5    33 1
    13     6    34 1
    14     6    35 1
    15     6    36 1
    16     7     8 1
    17     7    16 1
    18     7    37 1
    19     8     9 1
    20     8    14 1
    21     8    38 1
    22     9    10 1
    23     9    39 1
    24    10    11 2
    25    10    12 2
    26    10    13 1
    27    13    40 1
    28    13    41 1
    29    13    42 1
    30    14    15 1
    31    14    43 1
    32    14    44 1
    33    15    16 1
    34    15    45 1
    35    15    46 1
    36    16    17 1
    37    17    18 2
    38    17    19 1
    39    19    20 2
    40    19    47 1
    41    20    21 1
    42    20    48 1
    43    21    22 1
    44    21    49 1
    45    21    50 1
    46    22    23 1
    47    22    27 1
    48    23    24 1
    49    23    51 1
    50    23    52 1
    51    24    25 1
    52    24    53 1
    53    24    54 1
    54    25    26 1
    55    25    55 1
    56    25    56 1
    57    26    27 1
    58    26    57 1
    59    26    58 1
    60    27    59 1
    61    27    60 1
@<TRIPOS>SUBSTRUCTURE
     1 616         1 TEMP              0 ****  ****    0 ROOT
