@<TRIPOS>MOLECULE
616
   60    63     1     0     0
SMALL
bcc


@<TRIPOS>ATOM
      1 O5           0.0000     0.0000     0.0000 o          1 616      -0.310000
      2 C30          1.2070     0.0000     0.0000 c2         1 616       0.273000
      3 C7           1.9610     0.0000     1.3040 c3         1 616      -0.188000
      4 C27          2.9640    -1.1560     1.3130 c3         1 616      -0.122000
      5 C17          3.6360    -1.2360     2.6850 c3         1 616      -0.112000
      6 C1           2.2330    -2.4680     1.0250 c3         1 616      -0.112000
      7 C8           2.7080     1.3250     1.4610 c3         1 616      -0.030000
      8 C29          3.8020     1.4420     0.3800 c3         1 616      -0.023000
      9 N2           5.1150     1.0950     0.9290 n7         1 616      -0.559000
     10 S1           6.2080     0.2670     0.0030 s6         1 616       2.311000
     11 O2           7.3040     0.0910     0.8890 o          1 616      -0.856500
     12 O1           5.4450    -0.8300    -0.4810 o          1 616      -0.856500
     13 C3           6.6010     1.4410    -1.3220 c3         1 616      -0.571000
     14 C28          3.7450     2.9430    -0.0100 c3         1 616      -0.145000
     15 C26          2.2290     3.2380     0.1060 c3         1 616      -0.056000
     16 N1           1.7790     2.4480     1.2700 n3         1 616      -0.055000
     17 C2           0.6960     2.7130     2.0260 c3         1 616       0.340000
     18 O3           0.4770     2.0560     3.0260 o          1 616      -0.432000
     19 C4          -0.2210     3.7970     1.6440 c2         1 616      -0.183000
     20 C5          -1.2890     4.0600     2.3910 c2         1 616      -0.036000
     21 C6          -2.2280     5.1710     2.0000 DU         1 616      -0.021000
     22 N49         -3.5710     4.6210     1.7750 n3         1 616      -0.056000
     23 C50         -4.4310     5.7480     1.4000 c3         1 616      -0.096500
     24 C45         -5.8570     5.2520     1.1530 c3         1 616      -0.103000
     25 C46         -6.4070     4.6380     2.4450 c3         1 616      -0.106000
     26 C47         -5.4500     3.5380     2.9160 c3         1 616      -0.103000
     27 C48         -4.0460     4.1230     3.0690 c3         1 616      -0.096500
     28 H30C         1.7480    -0.0310    -0.9380 h4         1 616       0.052000
     29 HC7          1.2640    -0.1210     2.1240 hc         1 616       0.125000
     30 H27C         3.7160    -0.9870     0.5520 hc         1 616       0.118000
     31 H171         4.0150    -0.2590     2.9600 hc         1 616       0.044833
     32 H172         4.4550    -1.9430     2.6450 hc         1 616       0.044833
     33 H173         2.9130    -1.5630     3.4230 hc         1 616       0.044833
     34 HC11         2.8850    -3.3020     1.2550 hc         1 616       0.044833
     35 HC12         1.3420    -2.5270     1.6380 hc         1 616       0.044833
     36 HC13         1.9550    -2.5040    -0.0210 hc         1 616       0.044833
     37 HC8          3.1580     1.3860     2.4440 h1         1 616       0.097000
     38 H29C         3.5600     0.8190    -0.4730 h1         1 616       0.104000
     39 HN2          5.3660     1.3950     1.8500 hn         1 616       0.156000
     40 HC31         7.5180     1.1380    -1.8130 h1         1 616       0.103667
     41 HC32         5.7930     1.4560    -2.0430 h1         1 616       0.103667
     42 HC33         6.7270     2.4310    -0.9010 h1         1 616       0.103667
     43 H281         4.3100     3.5450     0.6910 hc         1 616       0.068500
     44 H282         4.0910     3.0900    -1.0260 hc         1 616       0.068500
     45 H261         1.7140     2.9140    -0.7900 h1         1 616       0.063000
     46 H262         2.0640     4.2940     0.2820 h1         1 616       0.063000
     47 HC4         -0.4150     2.7450     1.4780 DU         1 616       0.084000
     48 HC5         -1.0950     5.1130     2.5580 DU         1 616       0.059000
     49 HC61        -2.2680     5.9070     2.7940 ha         1 616       0.057000
     50 HC62        -1.8730     5.6400     1.0900 ha         1 616       0.057000
     51 H501        -4.4390     6.4760     2.2020 h1         1 616       0.052000
     52 H502        -4.0490     6.2050     0.4950 h1         1 616       0.052000
     53 H451        -5.8480     4.5010     0.3720 hc         1 616       0.060750
     54 H452        -6.4830     6.0850     0.8550 hc         1 616       0.060750
     55 H461        -6.4800     5.4040     3.2070 hc         1 616       0.052000
     56 H462        -7.3840     4.2110     2.2560 hc         1 616       0.052000
     57 H471        -5.4300     2.7390     2.1840 hc         1 616       0.060750
     58 H472        -5.7870     3.1520     3.8710 hc         1 616       0.060750
     59 H481        -3.3730     3.3520     3.4260 h1         1 616       0.052000
     60 H482        -4.0740     4.9400     3.7800 h1         1 616       0.052000
@<TRIPOS>BOND
     1     1     2 1   
     2     2     3 1   
     3     2    28 1   
     4     3     4 1   
     5     3     7 1   
     6     3    29 1   
     7     4     5 1   
     8     4     6 1   
     9     4    30 1   
    10     5    31 1   
    11     5    32 1   
    12     5    33 1   
    13     6    34 1   
    14     6    35 1   
    15     6    36 1   
    16     7     8 1   
    17     7    16 1   
    18     7    37 1   
    19     8     9 1   
    20     8    14 1   
    21     8    38 1   
    22     9    10 1   
    23     9    39 1   
    24    10    11 1   
    25    10    12 1   
    26    10    13 1   
    27    13    40 1   
    28    13    41 1   
    29    13    42 1   
    30    14    15 1   
    31    14    43 1   
    32    14    44 1   
    33    15    16 1   
    34    15    45 1   
    35    15    46 1   
    36    16    17 1   
    37    17    18 1   
    38    17    19 1   
    39    17    47 1   
    40    19    20 1   
    41    19    47 1   
    42    20    21 1   
    43    20    48 1   
    44    21    22 1   
    45    21    48 1   
    46    21    49 1   
    47    21    50 1   
    48    22    23 1   
    49    22    27 1   
    50    23    24 1   
    51    23    51 1   
    52    23    52 1   
    53    24    25 1   
    54    24    53 1   
    55    24    54 1   
    56    25    26 1   
    57    25    55 1   
    58    25    56 1   
    59    26    27 1   
    60    26    57 1   
    61    26    58 1   
    62    27    59 1   
    63    27    60 1   
@<TRIPOS>SUBSTRUCTURE
     1 616         1 TEMP              0 ****  ****    0 ROOT
