@<TRIPOS>MOLECULE
617
   32    33     1     0     0
SMALL
bcc


@<TRIPOS>ATOM
      1 C7           0.0000     0.0000     0.0000 c          1 617       0.986200
      2 C1          -0.7360     0.0490    -3.6790 ca         1 617      -0.150000
      3 C8          -3.9400     0.7050     0.0790 c          1 617       0.541100
      4 O2           1.3470     0.0000     0.0000 o          1 617      -0.889800
      5 O1          -0.6090     0.0000     1.0520 o          1 617      -0.889800
      6 C3          -2.8220    -0.0190    -2.4930 ca         1 617      -0.128000
      7 C2          -2.1220     0.0180    -3.6810 ca         1 617      -0.116000
      8 O3          -4.3700     1.3520    -0.8510 o          1 617      -0.658100
      9 C4          -2.1390    -0.0250    -1.2840 ca         1 617      -0.078400
     10 C5          -0.7370     0.0060    -1.2770 ca         1 617      -0.124600
     11 C6          -0.0420     0.0440    -2.4890 ca         1 617      -0.053000
     12 C9          -4.6310     0.7590     1.4180 c3         1 617       0.125400
     13 O4          -5.7570     1.6340     1.3370 os         1 617      -0.262900
     14 C10         -6.4950     1.7960     2.4670 ca         1 617       0.165100
     15 C11         -6.1380     1.1310     3.6310 ca         1 617      -0.171000
     16 C12         -6.8890     1.2970     4.7790 ca         1 617      -0.059500
     17 C13         -7.9980     2.1250     4.7670 ca         1 617      -0.081600
     18 C14         -8.3550     2.7890     3.6080 ca         1 617      -0.059500
     19 C15         -7.6040     2.6310     2.4600 ca         1 617      -0.171000
     20 Cl1         -8.9400     2.3310     6.2110 cl         1 617      -0.056400
     21 H1          -0.1970     0.0780    -4.6180 ha         1 617       0.084000
     22 H3          -3.9050    -0.0430    -2.5030 ha         1 617       0.119000
     23 HN1         -2.5650    -0.6950     0.6410 hn         1 617       0.202500
     24 H2          -2.6580     0.0230    -4.6220 ha         1 617       0.083000
     25 H6           1.0410     0.0680    -2.4920 ha         1 617       0.128000
     26 H91         -4.9650    -0.2340     1.6930 h1         1 617       0.017700
     27 H92         -3.9400     1.1280     2.1660 h1         1 617       0.017700
     28 H11         -5.2710     0.4830     3.6400 ha         1 617       0.126000
     29 H12         -6.6100     0.7770     5.6880 ha         1 617       0.108000
     30 H14         -9.2220     3.4390     3.6010 ha         1 617       0.108000
     31 H15         -7.8840     3.1510     1.5520 ha         1 617       0.126000
     32 N1          -2.8440    -0.0620    -0.0820 ns         1 617       0.012900
@<TRIPOS>BOND
     1     1     4 1   
     2     1     5 1   
     3     1    10 1   
     4     2     7 ar  
     5     2    11 ar  
     6     2    21 1   
     7     3     8 2   
     8     3    12 1   
     9     3    32 1   
    10     6     7 ar  
    11     6     9 ar  
    12     6    22 1   
    13     7    24 1   
    14     9    10 ar  
    15     9    32 1   
    16    10    11 ar  
    17    11    25 1   
    18    12    13 1   
    19    12    26 1   
    20    12    27 1   
    21    13    14 1   
    22    14    15 ar  
    23    14    19 ar  
    24    15    16 ar  
    25    15    28 1   
    26    16    17 ar  
    27    16    29 1   
    28    17    18 ar  
    29    17    20 1   
    30    18    19 ar  
    31    18    30 1   
    32    19    31 1   
    33    23    32 1   
@<TRIPOS>SUBSTRUCTURE
     1 617         1 TEMP              0 ****  ****    0 ROOT
