@<TRIPOS>MOLECULE
618
   69    72     1     0     0
SMALL
bcc


@<TRIPOS>ATOM
      1 O6          1.1260   -1.3500   -2.9510 o         1 618     -0.370100
      2 C5          1.3930   -0.7880   -1.9010 c         1 618      0.528100
      3 C3          0.3550   -0.1880   -0.9370 c3        1 618      0.087500
      4 N2         -0.6270    0.6350   -1.7200 n4        1 618     -0.759000
      5 C1         -1.8020    1.0410   -0.9140 c3        1 618      0.073100
      6 C4         -0.2760   -1.3510   -0.1780 c3        1 618     -0.145100
      7 N7          2.8380   -0.7040   -1.5030 n4        1 618     -0.653800
      8 C8          3.6190    0.1700   -2.4690 c3        1 618      0.114700
      9 C9          3.0350    1.6060   -2.4730 c         1 618      0.737500
     10 O15         2.0900    1.8480   -1.6760 o         1 618     -0.730500
     11 C14         5.0810    0.1310   -2.1690 c2        1 618     -0.283200
     12 C13         5.9540    0.6240   -3.0560 c2        1 618     -0.041200
     13 C12         5.5200    1.2830   -4.3130 c3        1 618     -0.093200
     14 C11         4.7850    2.5850   -4.0170 c3        1 618      0.163800
     15 N10         3.4770    2.5210   -3.3830 n         1 618     -0.421800
     16 S16         4.5880    3.4660   -5.5710 ss        1 618     -0.200200
     17 C17         2.9730    4.1630   -5.1800 c3        1 618      0.024100
     18 C19         3.0850    5.6720   -5.1590 c3        1 618     -0.103100
     19 C20         2.0210    3.7140   -6.2650 c3        1 618     -0.103100
     20 C18         2.5950    3.6310   -3.7730 c3        1 618      0.040700
     21 C21         1.1040    3.2140   -3.7350 c         1 618      0.702100
     22 O22         0.7650    2.0040   -3.7720 o         1 618     -0.692100
     23 N23         0.1890    4.2260   -3.5880 n         1 618     -0.414100
     24 C24        -1.1850    3.9860   -3.4670 cc        1 618     -0.005700
     25 C25        -1.9250    2.8170   -3.7670 cd        1 618     -0.360300
     26 C26        -3.2910    3.1490   -3.4260 cd        1 618      0.310600
     27 C29        -4.4540    2.2620   -3.6170 c3        1 618     -0.135400
     28 N27        -3.3560    4.4220   -2.9390 nc        1 618     -0.449800
     29 N28        -2.1120    4.9210   -2.9290 na        1 618      0.171300
     30 C30        -1.8080    6.2910   -2.6400 ca        1 618     -0.033200
     31 C31        -0.7420    6.6030   -1.7730 ca        1 618     -0.125000
     32 C32        -0.4540    7.9350   -1.4940 ca        1 618     -0.111500
     33 C33        -1.2190    8.9600   -2.0540 ca        1 618     -0.098000
     34 C34        -2.2830    8.6490   -2.8990 ca        1 618     -0.111500
     35 C35        -2.5880    7.3210   -3.1990 ca        1 618     -0.125000
     36 H3          0.8480    0.5300   -0.2070 hx        1 618      0.151700
     37 HN2        -0.9440    0.1100   -2.5480 hn        1 618      0.490300
     38 H11A       -2.4260    1.7430   -1.5470 hx        1 618      0.122033
     39 H12        -1.4650    1.5720    0.0150 hx        1 618      0.122033
     40 H13A       -2.4170    0.1410   -0.6410 hx        1 618      0.122033
     41 H41         0.5300   -1.9530    0.3130 hc        1 618      0.100033
     42 H42        -0.9530   -0.9700    0.6290 hc        1 618      0.100033
     43 H43        -0.8600   -2.0230   -0.8550 hc        1 618      0.100033
     44 HN7         3.2640   -1.6430   -1.5210 hn        1 618      0.482300
     45 H8          3.4250   -0.2690   -3.5050 hx        1 618      0.150700
     46 H14         5.4180   -0.3160   -1.2200 ha        1 618      0.168000
     47 H13         7.0430    0.5680   -2.8690 ha        1 618      0.187000
     48 H121        6.4180    1.5460   -4.9440 hc        1 618      0.108200
     49 H122        4.8870    0.5880   -4.9310 hc        1 618      0.108200
     50 H11         5.4420    3.2110   -3.3390 h2        1 618      0.106700
     51 H191        2.0970    6.1380   -4.9220 hc        1 618      0.068533
     52 H192        3.4070    6.0390   -6.1670 hc        1 618      0.068533
     53 H193        3.8370    6.0120   -4.4060 hc        1 618      0.068533
     54 H201        2.4900    3.8770   -7.2690 hc        1 618      0.068533
     55 H202        1.7770    2.6280   -6.1650 hc        1 618      0.068533
     56 H203        1.0720    4.3040   -6.2350 hc        1 618      0.068533
     57 H18         2.7540    4.4560   -3.0090 h1        1 618      0.108700
     58 HN23        0.4890    5.1810   -3.6200 hn        1 618      0.359500
     59 H25        -1.5650    1.9240   -4.2650 ha        1 618      0.174000
     60 H291       -4.9440    2.4910   -4.6000 hc        1 618      0.064367
     61 H292       -5.2180    2.3990   -2.8110 hc        1 618      0.064367
     62 H293       -4.1220    1.1960   -3.6290 hc        1 618      0.064367
     63 H31        -0.1560    5.8100   -1.2850 ha        1 618      0.147500
     64 H32         0.3750    8.1810   -0.8110 ha        1 618      0.158500
     65 H33        -0.9880   10.0110   -1.8200 ha        1 618      0.163000
     66 H34        -2.8980    9.4550   -3.3330 ha        1 618      0.158500
     67 H35        -3.4420    7.0930   -3.8580 ha        1 618      0.147500
     68 H22        -0.1370    1.4930   -2.0710 hn        1 618      0.490300
     69 H72         2.9230   -0.3050   -0.5590 hn        1 618      0.482300
@<TRIPOS>BOND
     1    1    2 2
     2    2    3 1
     3    2    7 1
     4    3    4 1
     5    3    6 1
     6    3   36 1
     7    4    5 1
     8    4   37 1
     9    4   68 1
    10    5   38 1
    11    5   39 1
    12    5   40 1
    13    6   41 1
    14    6   42 1
    15    6   43 1
    16    7    8 1
    17    7   44 1
    18    7   69 1
    19    8    9 1
    20    8   11 1
    21    8   45 1
    22    9   10 2
    23    9   15 1
    24   11   12 2
    25   11   46 1
    26   12   13 1
    27   12   47 1
    28   13   14 1
    29   13   48 1
    30   13   49 1
    31   14   15 1
    32   14   16 1
    33   14   50 1
    34   15   20 1
    35   16   17 1
    36   17   18 1
    37   17   19 1
    38   17   20 1
    39   18   51 1
    40   18   52 1
    41   18   53 1
    42   19   54 1
    43   19   55 1
    44   19   56 1
    45   20   21 1
    46   20   57 1
    47   21   22 2
    48   21   23 1
    49   23   24 1
    50   23   58 1
    51   24   25 2
    52   24   29 1
    53   25   26 1
    54   25   59 1
    55   26   27 1
    56   26   28 2
    57   27   60 1
    58   27   61 1
    59   27   62 1
    60   28   29 1
    61   29   30 1
    62   30   31 ar
    63   30   35 ar
    64   31   32 ar
    65   31   63 1
    66   32   33 ar
    67   32   64 1
    68   33   34 ar
    69   33   65 1
    70   34   35 ar
    71   34   66 1
    72   35   67 1
@<TRIPOS>SUBSTRUCTURE
     1 618         1 TEMP              0 ****  ****    0 ROOT
