@<TRIPOS>MOLECULE
619
   67    73     1     0     0
SMALL
bcc


@<TRIPOS>ATOM
      1 F30          0.0000     0.0000     0.0000 f          1 619      -0.093000
      2 C29          1.3510     0.0000     0.0000 ca         1 619       0.071000
      3 C26          2.0420     0.0000     1.2010 ca         1 619      -0.126500
      4 C25          3.4220    -0.0000     1.2050 ca         1 619      -0.075000
      5 C28          2.0420    -0.0050    -1.2010 ca         1 619      -0.126500
      6 C27          3.4220    -0.0070    -1.2060 ca         1 619      -0.075000
      7 C24          4.1210    -0.0000    -0.0010 cp         1 619      -0.043000
      8 C22          5.6040    -0.0010    -0.0010 cq         1 619      -0.035000
      9 C21          6.2980    -0.0010    -1.2050 ca         1 619      -0.083000
     10 C23          6.3020     0.0050     1.2080 ca         1 619      -0.114000
     11 C33          7.6840     0.0060     1.2150 ca         1 619       0.023000
     12 O34          8.3580     0.0110     2.3970 oh         1 619      -0.232000
     13 C31          8.3870     0.0010     0.0130 ca         1 619       0.127000
     14 O32          9.7450     0.0010     0.0210 oh         1 619      -0.206000
     15 C20          7.6940    -0.0000    -1.2030 ca         1 619      -0.148000
     16 C18          8.4350     0.0000    -2.4780 c2         1 619       0.274000
     17 O19          9.6520     0.0010    -2.4750 o          1 619      -0.394000
     18 N17          7.7640     0.0010    -3.6480 ns         1 619      -0.068000
     19 C16          8.5020     0.0010    -4.9140 DU         1 619       0.106000
     20 C15          7.5260     0.0010    -6.0630 c2         1 619      -0.118000
     21 C14          7.5970     0.9310    -6.9820 c2         1 619      -0.139000
     22 C6           6.6200     0.9310    -8.1310 DU         1 619       0.118000
     23 C4           5.8960     2.2910    -8.2200 c3         1 619       0.000000
     24 O5           6.5050     3.1210    -9.2110 oh         1 619      -0.278000
     25 C2           4.4530     1.9220    -8.6360 c3         1 619       0.016000
     26 O3           4.1290     2.5110    -9.8960 oh         1 619      -0.267000
     27 O13          5.5710    -0.0340    -7.8980 os         1 619      -0.251000
     28 C1           4.4790     0.3810    -8.7490 c3         1 619       0.060000
     29 N10          3.2160    -0.1870    -8.2690 na         1 619       0.287000
     30 C9           2.9670    -0.6540    -7.0130 c2         1 619      -0.210000
     31 C11          2.0660    -0.3400    -9.0010 c2         1 619      -0.118000
     32 N40          1.7050    -0.0680   -10.2510 n2         1 619      -0.151000
     33 C39          0.4880    -0.3390   -10.6730 c2         1 619       0.029000
     34 N38         -0.4270    -0.8850    -9.8920 n2         1 619      -0.219000
     35 C35         -0.1590    -1.1910    -8.6270 c2         1 619       0.083000
     36 C12          1.1280    -0.9210    -8.1310 c2         1 619      -0.252000
     37 N8           1.7420    -1.0860    -6.9340 n2         1 619      -0.070000
     38 N7          -1.1250    -1.7620    -7.8160 nu         1 619       0.083000
     39 C36         -2.4610    -2.0360    -8.3510 c3         1 619      -0.079000
     40 C37         -3.3280    -2.6630    -7.2580 c3         1 619      -0.125000
     41 H26          1.4990     0.0000     2.1380 ha         1 619       0.121500
     42 H25          3.9620     0.0020     2.1440 ha         1 619       0.113500
     43 H28          1.4980    -0.0100    -2.1380 ha         1 619       0.121500
     44 H27          3.9610    -0.0090    -2.1460 ha         1 619       0.113500
     45 H21          5.7560    -0.0020    -2.1430 ha         1 619       0.116000
     46 H23          5.7580     0.0110     2.1450 ha         1 619       0.122000
     47 HO34         8.2330    -0.8150     2.8330 ho         1 619       0.196000
     48 HO32        10.0580    -0.8400     0.3090 ho         1 619       0.201000
     49 HN17         6.7640    -0.0470    -3.6510 hn         1 619       0.109000
     50 H16          9.1250     0.8850    -4.9690 ha         1 619       0.070000
     51 H16A         9.1250    -0.8840    -4.9690 ha         1 619       0.070000
     52 H15          8.5490    -0.3490    -6.1300 DU         1 619       0.019000
     53 H14          7.6670     0.2790    -7.8450 DU         1 619       0.063000
     54 H6           7.1270     0.7150    -9.0640 ha         1 619       0.081000
     55 H4           5.8950     2.7820    -7.2540 h1         1 619       0.068000
     56 HO5          6.8320     3.9070    -8.8060 ho         1 619       0.190000
     57 H2           3.7500     2.2320    -7.8730 h1         1 619       0.060000
     58 HO3          3.5720     3.2590    -9.7590 ho         1 619       0.193000
     59 H1           4.6680     0.0840    -9.7730 h2         1 619       0.110000
     60 H9           3.6830    -0.6640    -6.2000 h5         1 619       0.168000
     61 H39          0.2280    -0.1060   -11.6980 h5         1 619       0.133000
     62 HN7         -0.9030    -2.0090    -6.8720 hn         1 619       0.105000
     63 H36         -2.9130    -1.1090    -8.6850 h1         1 619       0.065000
     64 H36A        -2.3820    -2.7200    -9.1870 h1         1 619       0.065000
     65 H37         -3.4050    -1.9790    -6.4210 hc         1 619       0.048333
     66 H37A        -4.3170    -2.8630    -7.6530 hc         1 619       0.048333
     67 H37B        -2.8770    -3.5900    -6.9270 hc         1 619       0.048333
@<TRIPOS>BOND
     1     1     2 1   
     2     2     3 1   
     3     2     5 1   
     4     3     4 1   
     5     3    41 1   
     6     4     7 1   
     7     4    42 1   
     8     5     6 1   
     9     5    43 1   
    10     6     7 1   
    11     6    44 1   
    12     7     8 1   
    13     8     9 1   
    14     8    10 1   
    15     9    15 1   
    16     9    45 1   
    17    10    11 1   
    18    10    46 1   
    19    11    12 1   
    20    11    13 1   
    21    12    47 1   
    22    13    14 1   
    23    13    15 1   
    24    14    48 1   
    25    15    16 1   
    26    16    17 1   
    27    16    18 1   
    28    18    19 1   
    29    18    49 1   
    30    19    20 1   
    31    19    50 1   
    32    19    51 1   
    33    19    52 1   
    34    20    21 1   
    35    20    52 1   
    36    21    22 1   
    37    21    53 1   
    38    22    23 1   
    39    22    27 1   
    40    22    53 1   
    41    22    54 1   
    42    23    24 1   
    43    23    25 1   
    44    23    55 1   
    45    24    56 1   
    46    25    26 1   
    47    25    28 1   
    48    25    57 1   
    49    26    58 1   
    50    27    28 1   
    51    28    29 1   
    52    28    59 1   
    53    29    30 1   
    54    29    31 1   
    55    30    37 1   
    56    30    60 1   
    57    31    32 1   
    58    31    36 1   
    59    32    33 1   
    60    33    34 1   
    61    33    61 1   
    62    34    35 1   
    63    35    36 1   
    64    35    38 1   
    65    36    37 1   
    66    38    39 1   
    67    38    62 1   
    68    39    40 1   
    69    39    63 1   
    70    39    64 1   
    71    40    65 1   
    72    40    66 1   
    73    40    67 1   
@<TRIPOS>SUBSTRUCTURE
     1 619         1 TEMP              0 ****  ****    0 ROOT
