@<TRIPOS>MOLECULE
molecule
   67    71     1     0     0
SMALL
bcc


@<TRIPOS>ATOM
      1 F30          0.0000     0.0000     0.0000 f          1 619      -0.137900
      2 C29          1.3510     0.0000     0.0000 ca         1 619       0.137900
      3 C26          2.0420     0.0000     1.2010 ca         1 619      -0.162500
      4 C25          3.4220    -0.0000     1.2050 ca         1 619      -0.095000
      5 C28          2.0420    -0.0050    -1.2010 ca         1 619      -0.162500
      6 C27          3.4220    -0.0070    -1.2060 ca         1 619      -0.095000
      7 C24          4.1210    -0.0000    -0.0010 cp         1 619      -0.053000
      8 C22          5.6040    -0.0010    -0.0010 cp         1 619      -0.036000
      9 C21          6.2980    -0.0010    -1.2050 ca         1 619      -0.098000
     10 C23          6.3020     0.0050     1.2080 ca         1 619      -0.129000
     11 C33          7.6840     0.0060     1.2150 ca         1 619       0.063100
     12 O34          8.3580     0.0110     2.3970 oh         1 619      -0.500100
     13 C31          8.3870     0.0010     0.0130 ca         1 619       0.156100
     14 O32          9.7450     0.0010     0.0210 oh         1 619      -0.474100
     15 C20          7.6940    -0.0000    -1.2030 ca         1 619      -0.150600
     16 C18          8.4350     0.0000    -2.4780 c          1 619       0.671700
     17 O19          9.6520     0.0010    -2.4750 o          1 619      -0.579100
     18 N17          7.7640     0.0010    -3.6480 ns         1 619      -0.587900
     19 C16          8.5020     0.0010    -4.9140 c3         1 619       0.147200
     20 C15          7.5260     0.0010    -6.0630 c2         1 619      -0.176200
     21 C14          7.5970     0.9310    -6.9820 c2         1 619      -0.171200
     22 C6           6.6200     0.9310    -8.1310 c3         1 619       0.160300
     23 C4           5.8960     2.2910    -8.2200 c3         1 619       0.096100
     24 O5           6.5050     3.1210    -9.2110 oh         1 619      -0.569800
     25 C2           4.4530     1.9220    -8.6360 c3         1 619       0.092100
     26 O3           4.1290     2.5110    -9.8960 oh         1 619      -0.558800
     27 O13          5.5710    -0.0340    -7.8980 os         1 619      -0.420600
     28 C1           4.4790     0.3810    -8.7490 c3         1 619       0.257800
     29 N10          3.2160    -0.1870    -8.2690 na         1 619      -0.254000
     30 C9           2.9670    -0.6540    -7.0130 cc         1 619       0.421700
     31 C11          2.0660    -0.3400    -9.0010 ca         1 619       0.479800
     32 N40          1.7050    -0.0680   -10.2510 nb         1 619      -0.790000
     33 C39          0.4880    -0.3390   -10.6730 ca         1 619       0.742900
     34 N38         -0.4270    -0.8850    -9.8920 nb         1 619      -0.834000
     35 C35         -0.1590    -1.1910    -8.6270 ca         1 619       0.786200
     36 C12          1.1280    -0.9210    -8.1310 ca         1 619      -0.213200
     37 N8           1.7420    -1.0860    -6.9340 nd         1 619      -0.588100
     38 N7          -1.1250    -1.7620    -7.8160 nu         1 619      -0.891900
     39 C36         -2.4610    -2.0360    -8.3510 c3         1 619       0.233800
     40 C37         -3.3280    -2.6630    -7.2580 c3         1 619      -0.114100
     41 H26          1.4990     0.0000     2.1380 ha         1 619       0.150000
     42 H25          3.9620     0.0020     2.1440 ha         1 619       0.137000
     43 H28          1.4980    -0.0100    -2.1380 ha         1 619       0.150000
     44 H27          3.9610    -0.0090    -2.1460 ha         1 619       0.137000
     45 H21          5.7560    -0.0020    -2.1430 ha         1 619       0.134000
     46 H23          5.7580     0.0110     2.1450 ha         1 619       0.146000
     47 HO34         8.2330    -0.8150     2.8330 ho         1 619       0.417000
     48 HO32        10.0580    -0.8400     0.3090 ho         1 619       0.425000
     49 HN17         6.7640    -0.0460    -3.6510 hn         1 619       0.312500
     50 H16          9.1250     0.8850    -4.9690 h1         1 619       0.061700
     51 H16A         9.1250    -0.8840    -4.9690 h1         1 619       0.061700
     52 H15          6.7650    -0.7680    -6.1280 ha         1 619       0.146000
     53 H14          8.3570     1.7000    -6.9170 ha         1 619       0.144000
     54 H6           7.1270     0.7150    -9.0640 h1         1 619       0.089700
     55 H4           5.8950     2.7820    -7.2540 h1         1 619       0.052700
     56 HO5          6.7770     3.9330    -8.8170 ho         1 619       0.405000
     57 H2           3.7500     2.2320    -7.8730 h1         1 619       0.057700
     58 HO3          3.5680     3.2560    -9.7590 ho         1 619       0.410000
     59 H1           4.6680     0.0840    -9.7730 h2         1 619       0.113700
     60 H9           3.6830    -0.6640    -6.2000 h5         1 619       0.081800
     61 H39          0.2280    -0.1060   -11.6980 h5         1 619       0.062100
     62 HN7         -0.9030    -2.0090    -6.8720 hn         1 619       0.462800
     63 H36         -2.9130    -1.1090    -8.6850 h1         1 619       0.053200
     64 H36A        -2.3820    -2.7200    -9.1870 h1         1 619       0.053200
     65 H37         -2.8790    -3.5910    -6.9290 hc         1 619       0.044033
     66 H37A        -4.3180    -2.8600    -7.6520 hc         1 619       0.044033
     67 H37B        -3.4030    -1.9800    -6.4200 hc         1 619       0.044033
@<TRIPOS>BOND
     1     1     2 1   
     2     2     3 ar  
     3     2     5 ar  
     4     3     4 ar  
     5     4     7 ar  
     6     5     6 ar  
     7     6     7 ar  
     8     7     8 1   
     9     8     9 ar  
    10     8    10 ar  
    11     9    15 ar  
    12    10    11 ar  
    13    11    12 1   
    14    11    13 ar  
    15    13    14 1   
    16    13    15 ar  
    17    15    16 1   
    18    16    17 2   
    19    16    18 1   
    20    18    19 1   
    21    19    20 1   
    22    20    21 2   
    23    21    22 1   
    24    22    23 1   
    25    22    27 1   
    26    23    24 1   
    27    23    25 1   
    28    25    26 1   
    29    25    28 1   
    30    27    28 1   
    31    28    29 1   
    32    29    30 1   
    33    29    31 1   
    34    30    37 2   
    35    31    32 ar  
    36    31    36 ar  
    37    32    33 ar  
    38    33    34 ar  
    39    34    35 ar  
    40    35    36 ar  
    41    35    38 1   
    42    36    37 1   
    43    38    39 1   
    44    39    40 1   
    45     3    41 1   
    46     4    42 1   
    47     5    43 1   
    48     6    44 1   
    49     9    45 1   
    50    10    46 1   
    51    12    47 1   
    52    14    48 1   
    53    18    49 1   
    54    19    50 1   
    55    19    51 1   
    56    20    52 1   
    57    21    53 1   
    58    22    54 1   
    59    23    55 1   
    60    24    56 1   
    61    25    57 1   
    62    26    58 1   
    63    28    59 1   
    64    30    60 1   
    65    33    61 1   
    66    38    62 1   
    67    39    63 1   
    68    39    64 1   
    69    40    65 1   
    70    40    66 1   
    71    40    67 1   
@<TRIPOS>SUBSTRUCTURE
     1 619         1 TEMP              0 ****  ****    0 ROOT
