@<TRIPOS>MOLECULE
61E
   58    62     1     0     0
SMALL
bcc


@<TRIPOS>ATOM
      1 C26          0.0000     0.0000     0.0000 c3         1 61E       0.182100
      2 N3           1.4690     0.0000     0.0000 n3         1 61E      -0.543600
      3 C25          1.9960     0.0000     1.3710 c3         1 61E       0.182100
      4 C24          1.9950    -1.1370    -0.7670 c3         1 61E       0.157800
      5 C23          3.5050    -0.9700    -0.9560 c3         1 61E      -0.042400
      6 C22          4.0520    -2.1550    -1.7550 c3         1 61E       0.199400
      7 O4           5.4620    -1.9990    -1.9320 os         1 61E      -0.285900
      8 C20          6.1090    -2.9720    -2.6260 ca         1 61E       0.167100
      9 C18          5.3970    -4.0490    -3.1220 ca         1 61E      -0.235000
     10 C19          7.4840    -2.8750    -2.8390 ca         1 61E       0.061100
     11 O3           8.1730    -1.8080    -2.3510 oh         1 61E      -0.480100
     12 C17          8.1470    -3.8600    -3.5420 ca         1 61E      -0.040000
     13 C15          7.4370    -4.9530    -4.0410 cp         1 61E      -0.113000
     14 C16          6.0520    -5.0490    -3.8320 ca         1 61E      -0.128200
     15 N2           5.5990    -6.2150    -4.4280 na         1 61E       0.367700
     16 C21          4.2060    -6.6690    -4.4280 c3         1 61E      -0.000400
     17 C14          6.6480    -6.8890    -5.0220 ca         1 61E      -0.149200
     18 C1           6.7020    -8.0820    -5.7300 ca         1 61E      -0.105000
     19 C13          7.8280    -6.1450    -4.8120 cp         1 61E       0.002000
     20 C4           9.0450    -6.6060    -5.3180 ca         1 61E      -0.107600
     21 C5          10.4300    -6.1000    -5.2940 c          1 61E       0.648100
     22 O1          10.8010    -5.0710    -4.7660 o          1 61E      -0.624500
     23 N1          11.2150    -6.9700    -5.9540 ns         1 61E      -0.166500
     24 C6          10.4970    -8.0080    -6.4200 c          1 61E       0.649100
     25 O2          10.9370    -8.9480    -7.0530 o          1 61E      -0.612500
     26 C3           9.0890    -7.8180    -6.0330 ca         1 61E      -0.190600
     27 C2           7.9140    -8.5510    -6.2350 cp         1 61E       0.067000
     28 C7           7.9570    -9.8250    -6.9890 cp         1 61E      -0.044000
     29 C12          7.2970    -9.9380    -8.2120 ca         1 61E      -0.077000
     30 C11          7.3410   -11.1280    -8.9090 ca         1 61E      -0.104000
     31 C10          8.0380   -12.2080    -8.3980 ca         1 61E      -0.084000
     32 C9           8.6950   -12.1040    -7.1850 ca         1 61E      -0.097000
     33 C8           8.6630   -10.9160    -6.4800 ca         1 61E       0.003400
     34 Cl1          9.4940   -10.7840    -4.9610 cl         1 61E      -0.022400
     35 H26         -0.3610    -0.8970     0.4880 h1         1 61E       0.001700
     36 H26A        -0.3610     0.8710     0.5330 h1         1 61E       0.001700
     37 H26B        -0.3610     0.0260    -1.0210 h1         1 61E       0.001700
     38 H25          1.2960     0.5020     2.0270 h1         1 61E       0.001700
     39 H25A         2.9470     0.5190     1.3930 h1         1 61E       0.001700
     40 H25B         2.1350    -1.0210     1.7050 h1         1 61E       0.001700
     41 H24          1.5110    -1.1740    -1.7360 h1         1 61E       0.006700
     42 H24A         1.7980    -2.0570    -0.2300 h1         1 61E       0.006700
     43 H23          3.7020    -0.0500    -1.4940 hc         1 61E       0.034700
     44 H23A         3.9880    -0.9330     0.0120 hc         1 61E       0.034700
     45 H22          3.5690    -2.1920    -2.7240 h1         1 61E      -0.000800
     46 H22A         3.8550    -3.0750    -1.2180 h1         1 61E      -0.000800
     47 H18          4.3300    -4.1180    -2.9490 ha         1 61E       0.125000
     48 HO3          8.6100    -2.0550    -1.5520 ho         1 61E       0.398000
     49 H17          9.2150    -3.7850    -3.7070 ha         1 61E       0.147000
     50 H21          4.1770    -7.7450    -4.3020 h1         1 61E       0.018367
     51 H21A         3.6720    -6.1950    -3.6130 h1         1 61E       0.018367
     52 H21B         3.7400    -6.4030    -5.3690 h1         1 61E       0.018367
     53 H1           5.7950    -8.6530    -5.8910 ha         1 61E       0.116000
     54 HN1         12.2020    -6.8600    -6.0820 hn         1 61E       0.200500
     55 H12          6.7510    -9.0930    -8.6140 ha         1 61E       0.108000
     56 H11          6.8290   -11.2170    -9.8600 ha         1 61E       0.105000
     57 H10          8.0680   -13.1410    -8.9480 ha         1 61E       0.104000
     58 H9           9.2410   -12.9530    -6.7910 ha         1 61E       0.115000
@<TRIPOS>BOND
     1     1     2 1   
     2     1    35 1   
     3     1    36 1   
     4     1    37 1   
     5     2     3 1   
     6     2     4 1   
     7     3    38 1   
     8     3    39 1   
     9     3    40 1   
    10     4     5 1   
    11     4    41 1   
    12     4    42 1   
    13     5     6 1   
    14     5    43 1   
    15     5    44 1   
    16     6     7 1   
    17     6    45 1   
    18     6    46 1   
    19     7     8 1   
    20     8     9 ar  
    21     8    10 ar  
    22     9    14 ar  
    23     9    47 1   
    24    10    11 1   
    25    10    12 ar  
    26    11    48 1   
    27    12    13 ar  
    28    12    49 1   
    29    13    14 ar  
    30    13    19 1   
    31    14    15 1   
    32    15    16 1   
    33    15    17 1   
    34    16    50 1   
    35    16    51 1   
    36    16    52 1   
    37    17    18 ar  
    38    17    19 ar  
    39    18    27 ar  
    40    18    53 1   
    41    19    20 ar  
    42    20    21 1   
    43    20    26 ar  
    44    21    22 2   
    45    21    23 1   
    46    23    24 1   
    47    23    54 1   
    48    24    25 2   
    49    24    26 1   
    50    26    27 ar  
    51    27    28 1   
    52    28    29 ar  
    53    28    33 ar  
    54    29    30 ar  
    55    29    55 1   
    56    30    31 ar  
    57    30    56 1   
    58    31    32 ar  
    59    31    57 1   
    60    32    33 ar  
    61    32    58 1   
    62    33    34 1   
@<TRIPOS>SUBSTRUCTURE
     1 61E         1 TEMP              0 ****  ****    0 ROOT
