@<TRIPOS>MOLECULE
molecule
   13    12     1     0     0
SMALL
bcc


@<TRIPOS>ATOM
      1 CAC          0.0000     0.0000     0.0000 c3         1 61G      -0.052900
      2 CAE          1.5070     0.0000     0.0000 ce         1 61G      -0.097200
      3 CAB          2.1710     0.0000     1.1510 c2         1 61G      -0.213000
      4 CAD          2.2420    -0.0000    -1.2740 ce         1 61G      -0.133000
      5 CAA          1.5790    -0.0000    -2.4240 c2         1 61G      -0.215000
      6 H1          -0.3610     0.0000     1.0210 hc         1 61G       0.042367
      7 H2          -0.3610     0.8850    -0.5110 hc         1 61G       0.042367
      8 H3          -0.3610    -0.8850    -0.5110 hc         1 61G       0.042367
      9 H5           3.2540    -0.0000     1.1520 ha         1 61G       0.114000
     10 H6           1.6280     0.0000     2.0890 ha         1 61G       0.114000
     11 H8           3.3250    -0.0000    -1.2740 ha         1 61G       0.127000
     12 H10          2.1200    -0.0000    -3.3620 ha         1 61G       0.114000
     13 H11          0.4950    -0.0000    -2.4250 ha         1 61G       0.114000
@<TRIPOS>BOND
     1     5     4 2
     2     1     2 1
     3     4     2 1
     4     2     3 2
     5     1     6 1
     6     1     7 1
     7     1     8 1
     8     3     9 1
     9     3    10 1
    10     4    11 1
    11     5    12 1
    12     5    13 1
@<TRIPOS>SUBSTRUCTURE
     1 61G         1 TEMP              0 ****  ****    0 ROOT
