@<TRIPOS>MOLECULE
molecule
   43    46     1     0     0
SMALL
bcc


@<TRIPOS>ATOM
      1 P            0.0000     0.0000     0.0000 p5         1 61H       1.156800
      2 O1P          1.4800     0.0000     0.0000 o          1 61H      -0.796500
      3 O2P         -0.5370     0.0000     1.5180 o          1 61H      -0.796500
      4 O5'         -0.5360     1.3150    -0.7590 os         1 61H      -0.563200
      5 C5'          0.0030     1.7710    -2.0010 c3         1 61H       0.212400
      6 C4'         -0.7310     3.0390    -2.4410 c3         1 61H       0.124100
      7 O4'         -0.4480     4.1100    -1.5260 os         1 61H      -0.370600
      8 C1'         -0.4210     5.3290    -2.2990 c3         1 61H       0.174400
      9 C1           0.3580     6.3980    -1.5770 ca         1 61H      -0.069300
     10 C2          -0.0760     7.6910    -1.6200 ca         1 61H      -0.111000
     11 C3           0.6450     8.6890    -0.9490 ca         1 61H      -0.044000
     12 C4           0.2180    10.0370    -0.9760 ca         1 61H      -0.103000
     13 C5           0.9040    11.0040    -0.3340 ca         1 61H      -0.132000
     14 C6           2.0810    10.7150     0.3950 ca         1 61H      -0.033000
     15 C7           2.7850    11.7290     1.0570 ca         1 61H      -0.121000
     16 C8           3.9190    11.4230     1.7530 ca         1 61H      -0.134000
     17 C9           4.3870    10.1150     1.8140 ca         1 61H      -0.132000
     18 C10          3.7220     9.1040     1.1790 ca         1 61H      -0.110000
     19 C11          2.5590     9.3860     0.4600 ca         1 61H      -0.019000
     20 C12          1.8130     8.3350    -0.2380 ca         1 61H      -0.024000
     21 C13          2.2320     7.0030    -0.2130 ca         1 61H      -0.125000
     22 C14          1.5050     6.0530    -0.8720 ca         1 61H      -0.083000
     23 C3'         -0.2320     3.4780    -3.8300 c3         1 61H       0.105100
     24 C2'          0.3060     4.9130    -3.6050 c3         1 61H      -0.129400
     25 O3'         -1.3080     3.4870    -4.7700 oh         1 61H      -0.603800
     26 H1          -0.4680    -1.1470    -0.6630 hp         1 61H      -0.197400
     27 H3          -0.1220     1.0010    -2.7530 h1         1 61H       0.024700
     28 H4           1.0570     1.9880    -1.8780 h1         1 61H       0.024700
     29 H5          -1.7990     2.8590    -2.4760 h1         1 61H       0.072700
     30 H6          -1.4280     5.6630    -2.5160 h1         1 61H       0.055700
     31 H7          -0.9180     7.9590    -2.2470 ha         1 61H       0.129000
     32 H8          -0.6800    10.2980    -1.5230 ha         1 61H       0.125000
     33 H9           0.5450    12.0250    -0.3780 ha         1 61H       0.122000
     34 H10          2.4320    12.7520     1.0180 ha         1 61H       0.125000
     35 H11          4.4620    12.2090     2.2640 ha         1 61H       0.121000
     36 H12          5.2890     9.8940     2.3720 ha         1 61H       0.125000
     37 H13          4.0950     8.0890     1.2340 ha         1 61H       0.139000
     38 H14          3.1250     6.7230     0.3330 ha         1 61H       0.137000
     39 H15          1.8250     5.0190    -0.8440 ha         1 61H       0.163000
     40 H16          0.5660     2.8270    -4.1660 h1         1 61H       0.045700
     41 H17          1.3790     4.9020    -3.4600 hc         1 61H       0.058200
     42 H18          0.0250     5.5620    -4.4250 hc         1 61H       0.058200
     43 H19         -1.0290     3.0760    -5.5710 ho         1 61H       0.396000
@<TRIPOS>BOND
     1    25    23 1   
     2    24    23 1   
     3    24     8 1   
     4    23     6 1   
     5    22    21 ar  
     6    22     9 ar  
     7    21    20 ar  
     8    18    17 ar  
     9    18    19 ar  
    10    17    16 ar  
    11     8     9 1   
    12     8     7 1   
    13     9    10 ar  
    14    20    19 ar  
    15    20    11 ar  
    16    19    14 ar  
    17    16    15 ar  
    18    10    11 ar  
    19     6     7 1   
    20     6     5 1   
    21    11    12 ar  
    22    14    15 ar  
    23    14    13 ar  
    24    12    13 ar  
    25     5     4 1   
    26     3     1 1   
    27     4     1 1   
    28     1     2 1   
    29     1    26 1   
    30     5    27 1   
    31     5    28 1   
    32     6    29 1   
    33     8    30 1   
    34    10    31 1   
    35    12    32 1   
    36    13    33 1   
    37    15    34 1   
    38    16    35 1   
    39    17    36 1   
    40    18    37 1   
    41    21    38 1   
    42    22    39 1   
    43    23    40 1   
    44    24    41 1   
    45    24    42 1   
    46    25    43 1   
@<TRIPOS>SUBSTRUCTURE
     1 61H         1 TEMP              0 ****  ****    0 ROOT
