@<TRIPOS>MOLECULE
molecule
   32    32     1     0     0
SMALL
bcc


@<TRIPOS>ATOM
      1 C01          0.0000     0.0000     0.0000 c3         1 61J       0.142100
      2 C02          1.5310     0.0000     0.0000 c3         1 61J       0.114100
      3 C03          2.0340     0.0000     1.4470 c3         1 61J       0.115100
      4 C04          1.4530    -1.2140     2.1780 c3         1 61J       0.100100
      5 C05         -0.0750    -1.1670     2.0950 c3         1 61J       0.143100
      6 O01         -0.4750    -1.1380     0.7230 os         1 61J      -0.397600
      7 C06         -0.5100     1.2780     0.6690 c3         1 61J      -0.120100
      8 O02          2.0080     1.1660    -0.6730 oh         1 61J      -0.601800
      9 O03          1.6140     1.2000     2.0990 oh         1 61J      -0.584800
     10 O04          1.9280    -2.4140     1.5640 oh         1 61J      -0.587800
     11 C07         -0.6610    -2.4080     2.7710 c3         1 61J      -0.077400
     12 C08         -2.1870    -2.3010     2.7980 c3         1 61J       0.206400
     13 O05         -2.7350    -3.4600     3.4290 os         1 61J      -0.573200
     14 P01         -4.3160    -3.6840     3.6310 p5         1 61J       1.163800
     15 O06         -4.8020    -2.8150     4.7260 o          1 61J      -0.800000
     16 O07         -4.5970    -5.2250     4.0030 o          1 61J      -0.800000
     17 H1          -0.3590    -0.0470    -1.0210 h1         1 61J       0.073700
     18 H2           1.8910    -0.8880    -0.5060 h1         1 61J       0.059700
     19 H3           3.1160    -0.0610     1.4510 h1         1 61J       0.027700
     20 H4           1.7580    -1.1880     3.2170 h1         1 61J       0.041700
     21 H5          -0.4340    -0.2750     2.5930 h1         1 61J       0.061700
     22 H6           0.0040     2.1350     0.2510 hc         1 61J       0.050700
     23 H7          -0.3210     1.2280     1.7350 hc         1 61J       0.050700
     24 H8          -1.5750     1.3760     0.4960 hc         1 61J       0.050700
     25 H9           2.5430     0.9090    -1.4060 ho         1 61J       0.393000
     26 H10          2.3500     1.5940     2.5370 ho         1 61J       0.392000
     27 H11          2.6140    -2.7870     2.0920 ho         1 61J       0.394000
     28 H12         -0.2860    -2.4780     3.7850 hc         1 61J       0.062700
     29 H13         -0.3710    -3.2920     2.2170 hc         1 61J       0.062700
     30 H14         -2.4770    -1.4160     3.3520 h1         1 61J       0.019700
     31 H15         -2.5620    -2.2310     1.7840 h1         1 61J       0.019700
     32 H16         -4.9900    -3.3590     2.4410 hp         1 61J      -0.202400
@<TRIPOS>BOND
     1    10     4 1
     2    16    14 1
     3     4     5 1
     4     4     3 1
     5    15    14 1
     6     5     6 1
     7     5    11 1
     8     9     3 1
     9    14    13 1
    10    12    13 1
    11    12    11 1
    12     6     1 1
    13     3     2 1
    14     8     2 1
    15     2     1 1
    16     1     7 1
    17     1    17 1
    18     2    18 1
    19     3    19 1
    20     4    20 1
    21     5    21 1
    22     7    22 1
    23     7    23 1
    24     7    24 1
    25     8    25 1
    26     9    26 1
    27    10    27 1
    28    11    28 1
    29    11    29 1
    30    12    30 1
    31    12    31 1
    32    14    32 1
@<TRIPOS>SUBSTRUCTURE
     1 61J         1 TEMP              0 ****  ****    0 ROOT
