@<TRIPOS>MOLECULE
molecule
   52    55     1     0     0
SMALL
bcc


@<TRIPOS>ATOM
      1 N1           0.0000     0.0000     0.0000 na         1 61K      -0.311900
      2 S1           8.4200   -10.4460    10.4660 sy         1 61K       1.011200
      3 N2           1.7690     0.0000     1.2360 nc         1 61K      -0.696000
      4 N3           1.6590    -1.1640     5.5160 ns         1 61K      -0.578900
      5 N4           2.6850    -2.2940    11.7870 ns         1 61K      -0.403100
      6 N5           4.5550    -5.0190    10.4900 n2         1 61K      -0.400400
      7 N6           7.6450   -11.5170     9.3690 nz         1 61K      -0.777500
      8 N8           5.0550    -5.6770    11.4800 nu         1 61K      -0.362700
      9 OAB          2.9360    -2.9810     5.5430 o          1 61K      -0.606100
     10 OAC          3.7900    -3.7950    13.1070 o          1 61K      -0.571500
     11 OAD          8.7730   -11.1270    11.7150 o          1 61K      -0.459800
     12 OAE          9.7420   -10.0490     9.9750 o          1 61K      -0.459800
     13 CAF          6.3790    -7.5160    12.3090 ca         1 61K      -0.162500
     14 CAG          6.0850    -7.2220     9.9390 ca         1 61K      -0.162500
     15 CAH          7.1560    -8.6320    12.0690 ca         1 61K      -0.033000
     16 CAI          6.8720    -8.3340     9.7080 ca         1 61K      -0.033000
     17 CAJ          1.7320    -1.1200     8.3670 ca         1 61K      -0.066000
     18 CAK          1.7750    -1.1080     9.7420 ca         1 61K      -0.161000
     19 CAL          1.3510     0.0000     0.0000 cd         1 61K       0.393400
     20 CAM         -0.4050     0.0040     1.3080 cd         1 61K      -0.247600
     21 CAN          3.1220    -3.0970     8.3240 ca         1 61K       0.007000
     22 CAO          1.6090    -1.1680     4.0510 c3         1 61K       0.116000
     23 CAW          2.3530    -2.1170     6.1700 c          1 61K       0.672700
     24 CAX          5.8400    -6.8060    11.2420 ca         1 61K       0.218600
     25 CAY          2.4030    -2.1120     7.6450 ca         1 61K      -0.135600
     26 CAZ          0.7110     0.0070     2.0610 cc         1 61K       0.323600
     27 CBA          7.4010    -9.0410    10.7710 ca         1 61K      -0.271500
     28 CBB          3.4530    -3.3720    12.0160 c          1 61K       0.596200
     29 CBC          3.8150    -3.9560    10.7130 cc         1 61K       0.367900
     30 CBD          2.4880    -2.0860    10.4320 ca         1 61K       0.033600
     31 CBE          3.1630    -3.0820     9.7090 ca         1 61K      -0.214900
     32 HN3          1.1250    -0.4930     6.0330 hn         1 61K       0.310500
     33 HN4          2.8230    -1.3810    12.1750 hn         1 61K       0.335500
     34 HN6          7.3380   -11.0060     8.5650 hn         1 61K       0.482800
     35 HN6A         6.8550   -11.9390     9.8170 hn         1 61K       0.482800
     36 HN8          5.5580    -5.1950    12.1980 hn         1 61K       0.436800
     37 HAF          6.1910    -7.1950    13.3270 ha         1 61K       0.182000
     38 HAG          5.7110    -6.6400     9.1050 ha         1 61K       0.182000
     39 HAH          7.5810    -9.1850    12.8990 ha         1 61K       0.167500
     40 HAI          6.9280    -8.3890     8.6280 ha         1 61K       0.167500
     41 HAJ          1.0780    -0.3040     8.0850 ha         1 61K       0.151000
     42 HAK          1.2040    -0.3360    10.2430 ha         1 61K       0.150000
     43 HAL          1.9870    -0.0050    -0.8770 h5         1 61K       0.068100
     44 HAM         -1.4810     0.0360     1.4230 h4         1 61K       0.170000
     45 HAN          3.3530    -4.0840     7.9420 ha         1 61K       0.166000
     46 HAO          2.6170    -1.1290     3.6560 h1         1 61K       0.067700
     47 HAOA         1.1210    -2.0720     3.7100 h1         1 61K       0.067700
     48 HAP          1.2540     0.9400     3.8330 hc         1 61K       0.053700
     49 HAPA        -0.2130    -0.0280     4.0340 hc         1 61K       0.053700
     50 HN1         -0.5400    -0.0060    -0.8430 hn         1 61K       0.303700
     51 CAP          0.7640     0.0110     3.5670 c3         1 61K      -0.107700
     52 H63          8.3330   -12.0830     8.9130 hn         1 61K       0.482800
@<TRIPOS>BOND
     1    20     1 1
     2     1    19 1
     3    27     2 1
     4    12     2 2
     5     2    11 2
     6     2     7 1
     7    26     3 1
     8     3    19 2
     9    23     4 1
    10     4    22 1
    11     4    32 1
    12     5    30 1
    13     5    28 1
    14     5    33 1
    15    29     6 2
    16     8     6 1
    17     7    34 1
    18     7    35 1
    19     8    24 1
    20     8    36 1
    21     9    23 2
    22    10    28 2
    23    24    13 ar
    24    13    15 ar
    25    13    37 1
    26    24    14 ar
    27    14    16 ar
    28    14    38 1
    29    15    27 ar
    30    15    39 1
    31    16    27 ar
    32    16    40 1
    33    18    17 ar
    34    17    25 ar
    35    17    41 1
    36    18    30 ar
    37    18    42 1
    38    19    43 1
    39    20    26 2
    40    20    44 1
    41    31    21 ar
    42    25    21 ar
    43    21    45 1
    44    22    51 1
    45    22    46 1
    46    22    47 1
    47    51    26 1
    48    51    48 1
    49    51    49 1
    50    25    23 1
    51    28    29 1
    52    31    29 1
    53    30    31 ar
    54     1    50 1
    55    52     7 1
@<TRIPOS>SUBSTRUCTURE
     1 61K         1 TEMP              0 ****  ****    0 ROOT
