@<TRIPOS>MOLECULE
61K
   52    55     1     0     0
SMALL
bcc


@<TRIPOS>ATOM
      1 N1           0.0000     0.0000     0.0000 na         1 61K       0.222100
      2 S1           8.4150   -10.4470    10.4550 sy         1 61K       0.739200
      3 N2           1.7690     0.0000     1.2360 nc         1 61K      -0.616000
      4 N3           1.6590    -1.1640     5.5160 ns         1 61K      -0.186900
      5 N4           2.6850    -2.2940    11.7870 ns         1 61K      -0.015100
      6 N5           4.5550    -5.0190    10.4900 n2         1 61K      -0.423400
      7 N6           7.5300   -11.6350     9.6040 nz         1 61K      -0.116500
      8 N8           5.0550    -5.6770    11.4800 nu         1 61K       0.006300
      9 OAB          2.9360    -2.9810     5.5430 o          1 61K      -0.650100
     10 OAC          3.7900    -3.7950    13.1070 o          1 61K      -0.613500
     11 OAD          8.9750   -10.9890    11.6950 o          1 61K      -0.442300
     12 OAE          9.6340   -10.0730     9.7320 o          1 61K      -0.442300
     13 CAF          6.3790    -7.5160    12.3090 ca         1 61K      -0.140000
     14 CAG          6.0850    -7.2220     9.9390 ca         1 61K      -0.140000
     15 CAH          7.1560    -8.6320    12.0690 ca         1 61K       0.010500
     16 CAI          6.8720    -8.3340     9.7080 ca         1 61K       0.010500
     17 CAJ          1.7320    -1.1200     8.3670 ca         1 61K      -0.052000
     18 CAK          1.7750    -1.1080     9.7420 ca         1 61K      -0.114000
     19 CAL          1.3510     0.0000     0.0000 cd         1 61K       0.213400
     20 CAM         -0.4050     0.0040     1.3080 cd         1 61K      -0.419600
     21 CAN          3.1220    -3.0970     8.3240 ca         1 61K       0.044000
     22 CAO          1.6090    -1.1680     4.0510 c3         1 61K       0.050000
     23 CAW          2.3530    -2.1170     6.1700 c          1 61K       0.589700
     24 CAX          5.8400    -6.8060    11.2420 ca         1 61K       0.077600
     25 CAY          2.4030    -2.1120     7.6450 ca         1 61K      -0.133600
     26 CAZ          0.7110     0.0070     2.0610 cc         1 61K       0.314600
     27 CBA          7.4010    -9.0410    10.7710 ca         1 61K      -0.160500
     28 CBB          3.4530    -3.3720    12.0160 c          1 61K       0.528200
     29 CBC          3.8150    -3.9560    10.7130 cc         1 61K       0.315900
     30 CBD          2.4880    -2.0860    10.4320 ca         1 61K      -0.112400
     31 CBE          3.1630    -3.0820     9.7090 ca         1 61K      -0.223900
     32 HN3          1.1660    -0.4610     6.0310 hn         1 61K       0.174500
     33 HN4          2.9390    -1.3420    11.9660 hn         1 61K       0.189500
     34 HN6          8.0360   -11.9040     8.7830 hn         1 61K       0.308133
     35 HN6A         7.3960   -12.4340    10.1900 hn         1 61K       0.308133
     36 HN8          5.5460    -5.1940    12.2050 hn         1 61K       0.292800
     37 HAF          6.1890    -7.1970    13.3270 ha         1 61K       0.149500
     38 HAG          5.6940    -6.6520     9.1050 ha         1 61K       0.149500
     39 HAH          7.5800    -9.1850    12.8990 ha         1 61K       0.132500
     40 HAI          6.9630    -8.4290     8.6330 ha         1 61K       0.132500
     41 HAJ          1.0390    -0.3460     8.0610 ha         1 61K       0.119000
     42 HAK          1.1990    -0.3410    10.2460 ha         1 61K       0.120000
     43 HAL          1.9870    -0.0060    -0.8770 h5         1 61K       0.025100
     44 HAM         -1.4800     0.0590     1.4310 h4         1 61K       0.147000
     45 HAN          3.3440    -4.0880     7.9460 ha         1 61K       0.129000
     46 HAO          2.6120    -1.0670     3.6560 h1         1 61K       0.038200
     47 HAOA         1.1770    -2.0990     3.7070 h1         1 61K       0.038200
     48 HAP          1.3610     0.9140     3.5820 hc         1 61K       0.027700
     49 HAPA        -0.0920     0.1340     4.2200 hc         1 61K       0.027700
     50 HN1         -0.5330     0.0140    -0.8470 hn         1 61K       0.128700
     51 CAP          0.7640     0.0110     3.5670 c3         1 61K      -0.061700
     52 H63          6.5870   -11.3230     9.4810 hn         1 61K       0.308133
@<TRIPOS>BOND
     1     1    19 1   
     2     1    20 1   
     3     1    50 1   
     4     2     7 1   
     5     2    11 2   
     6     2    12 2   
     7     2    27 1   
     8     3    19 2   
     9     3    26 1   
    10     4    22 1   
    11     4    23 1   
    12     4    32 1   
    13     5    28 1   
    14     5    30 1   
    15     5    33 1   
    16     6     8 1   
    17     6    29 2   
    18     7    34 1   
    19     7    35 1   
    20     7    52 1   
    21     8    24 1   
    22     8    36 1   
    23     9    23 2   
    24    10    28 2   
    25    13    15 ar  
    26    13    24 ar  
    27    13    37 1   
    28    14    16 ar  
    29    14    24 ar  
    30    14    38 1   
    31    15    27 ar  
    32    15    39 1   
    33    16    27 ar  
    34    16    40 1   
    35    17    18 ar  
    36    17    25 ar  
    37    17    41 1   
    38    18    30 ar  
    39    18    42 1   
    40    19    43 1   
    41    20    26 2   
    42    20    44 1   
    43    21    25 ar  
    44    21    31 ar  
    45    21    45 1   
    46    22    46 1   
    47    22    47 1   
    48    22    51 1   
    49    23    25 1   
    50    26    51 1   
    51    28    29 1   
    52    29    31 1   
    53    30    31 ar  
    54    48    51 1   
    55    49    51 1   
@<TRIPOS>SUBSTRUCTURE
     1 61K         1 TEMP              0 ****  ****    0 ROOT
