@<TRIPOS>MOLECULE
molecule
   36    37     1     0     0
SMALL
bcc


@<TRIPOS>ATOM
      1 C01          0.0000     0.0000     0.0000 ca         1 61L      -0.121000
      2 C02          1.3820     0.0000     0.0000 ca         1 61L      -0.176000
      3 C03          2.0790     0.0000     1.1940 ca         1 61L      -0.108000
      4 C04          1.3960    -0.0000     2.3980 ca         1 61L      -0.095300
      5 C05          0.0090    -0.0010     2.4080 ca         1 61L       0.272600
      6 C06         -0.6940     0.0060     1.2020 ca         1 61L      -0.019100
      7 S07         -2.4550     0.0050     1.2050 ss         1 61L      -0.209000
      8 N08         -0.6840    -0.0020     3.6240 nu         1 61L      -0.677000
      9 C09         -1.9560     0.5500     3.6990 ca         1 61L       0.150600
     10 C10         -2.1310     1.9390     3.5900 ca         1 61L      -0.091600
     11 C11         -3.0640    -0.2700     3.8760 ca         1 61L      -0.144000
     12 C12         -4.3260     0.2810     3.9500 ca         1 61L      -0.111300
     13 C13         -4.5010     1.6520     3.8490 ca         1 61L      -0.155000
     14 C14         -3.4170     2.4810     3.6660 ca         1 61L      -0.087000
     15 C15         -0.9660     2.8200     3.3960 c          1 61L       0.883200
     16 O16          0.1580     2.3600     3.4400 o          1 61L      -0.833300
     17 O17         -1.1470     4.1360     3.1680 o          1 61L      -0.833300
     18 C18         -2.8680     0.0140    -0.5610 c3         1 61L      -0.061000
     19 C19         -5.5230    -0.6140     4.1430 c3         1 61L      -0.036800
     20 C20          2.1590    -0.0010     3.6960 c3         1 61L      -0.039800
     21 H1          -0.5420     0.0020    -0.9380 ha         1 61L       0.116000
     22 H2           1.9210    -0.0020    -0.9390 ha         1 61L       0.106000
     23 H3           3.1620     0.0000     1.1880 ha         1 61L       0.111000
     24 H4          -0.2640    -0.4020     4.4390 hn         1 61L       0.436800
     25 H5          -2.9360    -1.3420     3.9570 ha         1 61L       0.117000
     26 H6          -5.4970     2.0730     3.9080 ha         1 61L       0.106000
     27 H7          -3.5600     3.5520     3.5850 ha         1 61L       0.156000
     28 H9          -2.4440     0.8960    -1.0270 h1         1 61L       0.048700
     29 H10         -2.4610    -0.8730    -1.0310 h1         1 61L       0.048700
     30 H11         -3.9440     0.0250    -0.6800 h1         1 61L       0.048700
     31 H12         -5.2320    -1.6450     3.9850 hc         1 61L       0.027033
     32 H13         -6.2950    -0.3440     3.4330 hc         1 61L       0.027033
     33 H14         -5.9030    -0.4970     5.1510 hc         1 61L       0.027033
     34 H15          1.9090    -0.8900     4.2620 hc         1 61L       0.038700
     35 H16          3.2230     0.0090     3.4900 hc         1 61L       0.038700
     36 H17          1.8950     0.8790     4.2710 hc         1 61L       0.038700
@<TRIPOS>BOND
     1    19    12 1
     2    13    12 ar
     3    13    14 ar
     4    12    11 ar
     5    14    10 ar
     6    11     9 ar
     7    10     9 ar
     8    10    15 1
     9     9     8 1
    10    15    16 1
    11    15    17 1
    12     7    18 1
    13     7     6 1
    14     8     5 1
    15     6     5 ar
    16     6     1 ar
    17     5     4 ar
    18     1     2 ar
    19     4    20 1
    20     4     3 ar
    21     2     3 ar
    22     1    21 1
    23     2    22 1
    24     3    23 1
    25     8    24 1
    26    11    25 1
    27    13    26 1
    28    14    27 1
    29    18    28 1
    30    18    29 1
    31    18    30 1
    32    19    31 1
    33    19    32 1
    34    19    33 1
    35    20    34 1
    36    20    35 1
    37    20    36 1
@<TRIPOS>SUBSTRUCTURE
     1 61L         1 TEMP              0 ****  ****    0 ROOT
