@<TRIPOS>MOLECULE
61M
   21    21     1     0     0
SMALL
bcc


@<TRIPOS>ATOM
      1 C10          0.0000     0.0000     0.0000 c3         1 61M      -0.225400
      2 C01          1.5500    -0.1230    -2.4820 ca         1 61M      -0.038000
      3 C02          2.2400    -0.0000    -1.2700 ca         1 61M      -0.218600
      4 C03          3.6420     0.1220    -1.2800 ca         1 61M       0.090600
      5 C04          4.3230     0.1200    -2.4900 ca         1 61M      -0.185000
      6 C05          3.6270    -0.0010    -3.6750 ca         1 61M      -0.071000
      7 C06          2.2460    -0.1270    -3.6710 ca         1 61M      -0.171000
      8 N07          4.3400     0.2440    -0.0870 nv         1 61M      -0.485200
      9 C08          1.5080     0.0000     0.0000 c          1 61M       0.604700
     10 O09          2.1140     0.0000     1.0510 o          1 61M      -0.510100
     11 C11         -0.5020     0.0010     1.4210 c          1 61M       0.973600
     12 O12         -1.8220     0.0010     1.6660 o          1 61M      -0.883800
     13 O13          0.2830     0.0010     2.3390 o          1 61M      -0.883800
     14 H101        -0.3610    -0.8850    -0.5100 hc         1 61M       0.025700
     15 H102        -0.3610     0.8840    -0.5110 hc         1 61M       0.025700
     16 H041         5.4020     0.2160    -2.5040 ha         1 61M       0.099000
     17 H051         4.1640    -0.0040    -4.6160 ha         1 61M       0.084000
     18 H061         1.7110    -0.2220    -4.6080 ha         1 61M       0.094000
     19 H071         4.0420     0.9080     0.6000 hn         1 61M       0.279300
     20 H072         5.0960    -0.3790     0.1150 hn         1 61M       0.279300
     21 H011         0.4710    -0.2190    -2.4850 ha         1 61M       0.115000
@<TRIPOS>BOND
     1     1     9 1   
     2     1    11 1   
     3     1    14 1   
     4     1    15 1   
     5     2     3 ar  
     6     2     7 ar  
     7     2    21 1   
     8     3     4 ar  
     9     3     9 1   
    10     4     5 ar  
    11     4     8 1   
    12     5     6 ar  
    13     5    16 1   
    14     6     7 ar  
    15     6    17 1   
    16     7    18 1   
    17     8    19 1   
    18     8    20 1   
    19     9    10 2   
    20    11    12 1   
    21    11    13 1   
@<TRIPOS>SUBSTRUCTURE
     1 61M         1 TEMP              0 ****  ****    0 ROOT
