@<TRIPOS>MOLECULE
molecule
   21    22     1     0     0
SMALL
bcc


@<TRIPOS>ATOM
      1 O20          0.0000     0.0000     0.0000 o          1 61N      -0.832300
      2 C11          1.3480     0.0000     0.0000 c          1 61N       0.887200
      3 O21          1.9550     0.0000     1.0530 o          1 61N      -0.832300
      4 C6           2.0840    -0.0020    -1.2760 ca         1 61N      -0.071600
      5 C10          3.5420     0.1170    -1.2970 ca         1 61N      -0.036000
      6 C5           4.2810     0.2340    -0.1140 ca         1 61N      -0.068000
      7 C4           5.6380     0.3430    -0.1740 ca         1 61N      -0.199000
      8 C3           6.3030     0.3380    -1.4030 ca         1 61N       0.090100
      9 O2           7.6570     0.4470    -1.4330 oh         1 61N      -0.539100
     10 C2           5.6100     0.2250    -2.5750 ca         1 61N      -0.175000
     11 C1           4.2100     0.1110    -2.5460 ca         1 61N      -0.031000
     12 C8           3.4620    -0.0080    -3.7290 ca         1 61N      -0.161000
     13 C7           2.1060    -0.1180    -3.6860 ca         1 61N      -0.124000
     14 C9           1.4100    -0.1220    -2.4840 ca         1 61N      -0.128000
     15 H2           3.7770     0.2390     0.8450 ha         1 61N       0.211000
     16 H3           6.2080     0.4340     0.7420 ha         1 61N       0.122000
     17 H4           8.0420    -0.4140    -1.4360 ho         1 61N       0.402000
     18 H5           6.1370     0.2220    -3.5220 ha         1 61N       0.120000
     19 H6           3.9690    -0.0080    -4.6860 ha         1 61N       0.106000
     20 H7           1.5550    -0.2130    -4.6140 ha         1 61N       0.103000
     21 H8           0.3300    -0.2120    -2.4900 ha         1 61N       0.155000
@<TRIPOS>BOND
     1    13    12 ar
     2    13    14 ar
     3    12    11 ar
     4    14     4 ar
     5    11    10 ar
     6    11     5 ar
     7     4     5 ar
     8     4     2 1
     9    10     8 ar
    10     5     6 ar
    11     3     2 1
    12     2     1 1
    13     8     9 1
    14     8     7 ar
    15     6     7 ar
    16     6    15 1
    17     7    16 1
    18     9    17 1
    19    10    18 1
    20    12    19 1
    21    13    20 1
    22    14    21 1
@<TRIPOS>SUBSTRUCTURE
     1 61N         1 TEMP              0 ****  ****    0 ROOT
