@<TRIPOS>MOLECULE
61N
   21    22     1     0     0
SMALL
bcc


@<TRIPOS>ATOM
      1 O20         0.1870    0.5170    0.0040 o         1 61N     -0.826300
      2 C11         1.3220   -0.0350    0.0210 c         1 61N      0.906200
      3 O21         1.8180   -0.5890    1.0440 o         1 61N     -0.826300
      4 C6          2.1100   -0.0410   -1.2860 ca        1 61N     -0.081600
      5 C10         3.5300    0.0620   -1.3350 ca        1 61N     -0.048000
      6 C5          4.3190    0.1620   -0.1520 ca        1 61N     -0.040000
      7 C4          5.6840    0.2740   -0.2170 ca        1 61N     -0.241000
      8 C3          6.3280    0.2880   -1.4850 ca        1 61N      0.103100
      9 O2          7.7040    0.4030   -1.5900 oh        1 61N     -0.521100
     10 C2          5.6060    0.1860   -2.6550 ca        1 61N     -0.182000
     11 C1          4.1900    0.0690   -2.5950 ca        1 61N     -0.015000
     12 C8          3.4240   -0.0420   -3.7840 ca        1 61N     -0.172000
     13 C7          2.0540   -0.1460   -3.7160 ca        1 61N     -0.119000
     14 C9          1.3990   -0.1400   -2.4680 ca        1 61N     -0.145000
     15 H2          3.7900    0.1270    0.8210 ha        1 61N      0.196000
     16 H3          6.2900    0.3490    0.6960 ha        1 61N      0.116000
     17 H4          8.0550    0.4510   -0.6910 ho        1 61N      0.405000
     18 H5          6.1120    0.1950   -3.6280 ha        1 61N      0.128000
     19 H6          3.9450   -0.0430   -4.7520 ha        1 61N      0.108000
     20 H7          1.4570   -0.2310   -4.6350 ha        1 61N      0.106000
     21 H8          0.3000   -0.1950   -2.4210 ha        1 61N      0.148000
@<TRIPOS>BOND
     1    1    2 1   
     2    2    3 1   
     3    2    4 1   
     4    4    5 ar  
     5    4   14 ar  
     6    5    6 ar  
     7    5   11 ar  
     8    6    7 ar  
     9    6   15 1   
    10    7    8 ar  
    11    7   16 1   
    12    8    9 1   
    13    8   10 ar  
    14    9   17 1   
    15   10   11 ar  
    16   10   18 1   
    17   11   12 ar  
    18   12   13 ar  
    19   12   19 1   
    20   13   14 ar  
    21   13   20 1   
    22   14   21 1   
@<TRIPOS>SUBSTRUCTURE
     1 61N         1 TEMP              0 ****  ****    0 ROOT
