@<TRIPOS>MOLECULE
molecule
   23    24     1     0     0
SMALL
bcc


@<TRIPOS>ATOM
      1 C10          0.0000     0.0000     0.0000 cp         1 61O      -0.110300
      2 C13          1.4550     0.0030     2.3030 ca         1 61O       0.396200
      3 C15          1.3940     0.0000     0.0000 ca         1 61O       0.410200
      4 C01         -1.2640    -1.0360    -3.3850 ca         1 61O      -0.155000
      5 C02         -0.5590    -1.0340    -2.1970 ca         1 61O      -0.145000
      6 C03         -0.7530    -0.0080    -1.2760 cp         1 61O      -0.031000
      7 C04         -1.6680     1.0220    -1.5640 ca         1 61O      -0.089600
      8 C05         -2.3700     1.0010    -2.7690 ca         1 61O      -0.094000
      9 C06         -2.1610    -0.0200    -3.6720 ca         1 61O      -0.159000
     10 C07         -1.8840     2.1140    -0.5980 c          1 61O       0.877200
     11 O08         -1.1880     2.1940     0.3960 o          1 61O      -0.829800
     12 O09         -2.8520     3.0250    -0.8160 o          1 61O      -0.829800
     13 C11         -0.6760     0.0020     1.2240 ca         1 61O       0.003000
     14 C12          0.0740     0.0030     2.3880 ca         1 61O      -0.269300
     15 N14          2.0650     0.0000     1.1340 nb         1 61O      -0.722000
     16 H131         2.0450     0.0030     3.2120 h4         1 61O      -0.004900
     17 H151         1.9310    -0.0030    -0.9410 h4         1 61O       0.010100
     18 H051        -3.0740     1.7910    -2.9990 ha         1 61O       0.155000
     19 H061        -2.7080    -0.0330    -4.6070 ha         1 61O       0.106000
     20 H111        -1.7580     0.0020     1.2610 ha         1 61O       0.148000
     21 H121        -0.4160     0.0050     3.3550 ha         1 61O       0.119000
     22 H011        -1.1090    -1.8350    -4.1000 ha         1 61O       0.103000
     23 H021         0.1400    -1.8320    -1.9800 ha         1 61O       0.113000
@<TRIPOS>BOND
     1     9     8 ar  
     2     9     4 ar  
     3     8     7 ar  
     4    11    10 1   
     5     4     5 ar  
     6     7    10 1   
     7     7     6 ar  
     8    10    12 1   
     9     5     6 ar  
    10     6     1 1   
    11     1     3 ar  
    12     1    13 ar  
    13     3    15 ar  
    14    13    14 ar  
    15    15     2 ar  
    16    14     2 ar  
    17     2    16 1   
    18     3    17 1   
    19     4    22 1   
    20     5    23 1   
    21     8    18 1   
    22     9    19 1   
    23    13    20 1   
    24    14    21 1   
@<TRIPOS>SUBSTRUCTURE
     1 61O         1 TEMP              0 ****  ****    0 ROOT
