@<TRIPOS>MOLECULE
61S
   69    71     1     0     0
SMALL
bcc


@<TRIPOS>ATOM
      1 C1           0.0000     0.0000     0.0000 c3         1 61S       0.030900
      2 C10          0.9860    -5.0480    -8.7350 c3         1 61S      -0.028433
      3 C8           7.3580    -1.4310    -8.1280 ca         1 61S      -0.097000
      4 C7           8.2800    -1.1880    -9.1300 ca         1 61S      -0.097000
      5 C5           9.0780    -3.4370    -8.9400 ca         1 61S      -0.097000
      6 C3           7.2950    -2.6770    -7.5340 ca         1 61S      -0.094300
      7 C2           2.7310    -4.3360    -6.5330 c          1 61S       0.687100
      8 O4           2.8110    -5.5050    -7.1880 os         1 61S      -0.404900
      9 C9           1.5760    -6.0410    -7.7310 c3         1 61S       0.178800
     10 C12          0.5770    -6.2720    -6.5960 c3         1 61S      -0.028433
     11 C11          1.8630    -7.3680    -8.4370 c3         1 61S      -0.028433
     12 C62          3.9720    -3.7170    -5.9420 c3         1 61S      -0.028300
     13 C63          4.9890    -3.4500    -7.0530 c3         1 61S      -0.035400
     14 C71          6.2940    -2.9400    -6.4390 c3         1 61S       0.028900
     15 C6           9.1400    -2.1920    -9.5350 ca         1 61S      -0.102000
     16 C4           8.1510    -3.6820    -7.9430 ca         1 61S      -0.097000
     17 N61          3.6230    -2.4550    -5.2850 ns         1 61S      -0.180900
     18 O60          3.0590    -3.5080    -3.4120 o          1 61S      -0.659100
     19 C51          2.8230    -1.1870    -3.3530 ca         1 61S      -0.211600
     20 C50          2.3580    -1.1870    -2.0360 ca         1 61S       0.018000
     21 C52          2.9610     0.0230    -4.0420 ca         1 61S      -0.037000
     22 C53          2.6340     1.2060    -3.4230 ca         1 61S      -0.187000
     23 C54          2.1640     1.2020    -2.1120 ca         1 61S       0.079600
     24 N55          1.8330     2.4000    -1.4890 nv         1 61S      -0.461200
     25 C49          2.0310    -0.0000    -1.4210 ca         1 61S      -0.182300
     26 C48          1.5290     0.0000     0.0000 c3         1 61S       0.043900
     27 C32         -0.5020     0.0000     1.4210 ca         1 61S      -0.108300
     28 C37         -0.7320     1.1980     2.0720 ca         1 61S      -0.078500
     29 C36         -1.1910     1.2000     3.3750 ca         1 61S      -0.135500
     30 C35         -1.4230    -0.0010     4.0300 ca         1 61S       0.120100
     31 O38         -1.8750    -0.0010     5.3110 oh         1 61S      -0.500100
     32 C34         -1.1920    -1.2010     3.3740 ca         1 61S      -0.135500
     33 C33         -0.7380    -1.1980     2.0700 ca         1 61S      -0.078500
     34 H1          -0.3610     0.8840    -0.5110 hc         1 61S       0.023700
     35 H2          -0.3610    -0.8850    -0.5100 hc         1 61S       0.023700
     36 H3           1.7860    -4.6000    -9.3120 hc         1 61S       0.019256
     37 H4           0.4470    -4.2730    -8.2030 hc         1 61S       0.019256
     38 H5           0.3080    -5.5670    -9.4000 hc         1 61S       0.019256
     39 H6           6.6830    -0.6450    -7.8100 ha         1 61S       0.105000
     40 H7           8.3290    -0.2110    -9.5960 ha         1 61S       0.103000
     41 H8           9.7500    -4.2240    -9.2600 ha         1 61S       0.103000
     42 H9          -0.1230    -7.0470    -6.8840 hc         1 61S       0.019256
     43 H10          0.0370    -5.3540    -6.3970 hc         1 61S       0.019256
     44 H11          1.1090    -6.5790    -5.7040 hc         1 61S       0.019256
     45 H12          2.2940    -8.0660    -7.7300 hc         1 61S       0.019256
     46 H13          0.9400    -7.7750    -8.8300 hc         1 61S       0.019256
     47 H14          2.5590    -7.2010    -9.2500 hc         1 61S       0.019256
     48 H15          4.4020    -4.3960    -5.2150 h1         1 61S       0.077700
     49 H16          4.5940    -2.7050    -7.7330 hc         1 61S       0.032700
     50 H17          5.1800    -4.3680    -7.5950 hc         1 61S       0.032700
     51 H18          6.6890    -3.6850    -5.7590 hc         1 61S       0.023200
     52 H19          6.1030    -2.0220    -5.8960 hc         1 61S       0.023200
     53 H20          9.8650    -2.0010   -10.3180 ha         1 61S       0.103000
     54 H21          8.1010    -4.6590    -7.4770 ha         1 61S       0.105000
     55 H22          3.6920    -1.5930    -5.7890 hn         1 61S       0.185500
     56 H23          2.2550    -2.1220    -1.4980 ha         1 61S       0.127000
     57 H24          3.3270     0.0270    -5.0620 ha         1 61S       0.096000
     58 H25          2.7410     2.1430    -3.9560 ha         1 61S       0.110000
     59 H26          1.5310     3.1820    -2.0370 hn         1 61S       0.272800
     60 H27          1.9050     2.4840    -0.4950 hn         1 61S       0.272800
     61 H28          1.8900    -0.8850     0.5100 hc         1 61S       0.018700
     62 H29          1.8910     0.8840     0.5110 hc         1 61S       0.018700
     63 H30         -0.5510     2.1350     1.5600 ha         1 61S       0.106000
     64 H31         -1.3710     2.1400     3.8840 ha         1 61S       0.113000
     65 H32         -1.1420     0.0080     5.9030 ho         1 61S       0.401000
     66 H33         -1.3740    -2.1400     3.8820 ha         1 61S       0.113000
     67 H34         -0.5570    -2.1350     1.5580 ha         1 61S       0.106000
     68 C59          3.1750    -2.4580    -4.0150 c          1 61S       0.617700
     69 O3           1.6650    -3.7790    -6.4180 o          1 61S      -0.579000
@<TRIPOS>BOND
     1     1    26 1   
     2     1    27 1   
     3     1    34 1   
     4     1    35 1   
     5     2     9 1   
     6     2    36 1   
     7     2    37 1   
     8     2    38 1   
     9     3     4 ar  
    10     3     6 ar  
    11     3    39 1   
    12     4    15 ar  
    13     4    40 1   
    14     5    15 ar  
    15     5    16 ar  
    16     5    41 1   
    17     6    14 1   
    18     6    16 ar  
    19     7     8 1   
    20     7    12 1   
    21     7    69 2   
    22     8     9 1   
    23     9    10 1   
    24     9    11 1   
    25    10    42 1   
    26    10    43 1   
    27    10    44 1   
    28    11    45 1   
    29    11    46 1   
    30    11    47 1   
    31    12    13 1   
    32    12    17 1   
    33    12    48 1   
    34    13    14 1   
    35    13    49 1   
    36    13    50 1   
    37    14    51 1   
    38    14    52 1   
    39    15    53 1   
    40    16    54 1   
    41    17    55 1   
    42    17    68 1   
    43    18    68 2   
    44    19    20 ar  
    45    19    21 ar  
    46    19    68 1   
    47    20    25 ar  
    48    20    56 1   
    49    21    22 ar  
    50    21    57 1   
    51    22    23 ar  
    52    22    58 1   
    53    23    24 1   
    54    23    25 ar  
    55    24    59 1   
    56    24    60 1   
    57    25    26 1   
    58    26    61 1   
    59    26    62 1   
    60    27    28 ar  
    61    27    33 ar  
    62    28    29 ar  
    63    28    63 1   
    64    29    30 ar  
    65    29    64 1   
    66    30    31 1   
    67    30    32 ar  
    68    31    65 1   
    69    32    33 ar  
    70    32    66 1   
    71    33    67 1   
@<TRIPOS>SUBSTRUCTURE
     1 61S         1 TEMP              0 ****  ****    0 ROOT
