@<TRIPOS>MOLECULE
molecule
   69    71     1     0     0
SMALL
bcc


@<TRIPOS>ATOM
      1 C1           0.0000     0.0000     0.0000 c3         1 61S      -0.034100
      2 C10          0.9860    -5.0480    -8.7350 c3         1 61S      -0.105100
      3 C8           7.3580    -1.4310    -8.1280 ca         1 61S      -0.124000
      4 C7           8.2800    -1.1880    -9.1300 ca         1 61S      -0.124500
      5 C5           9.0780    -3.4370    -8.9400 ca         1 61S      -0.124500
      6 C3           7.2950    -2.6770    -7.5340 ca         1 61S      -0.086300
      7 C2           2.7310    -4.3360    -6.5330 c          1 61S       0.620100
      8 O4           2.8110    -5.5050    -7.1880 os         1 61S      -0.426900
      9 C9           1.5760    -6.0410    -7.7310 c3         1 61S       0.159800
     10 C12          0.5770    -6.2720    -6.5960 c3         1 61S      -0.105100
     11 C11          1.8630    -7.3680    -8.4370 c3         1 61S      -0.105100
     12 C62          3.9720    -3.7170    -5.9420 c3         1 61S       0.075700
     13 C63          4.9890    -3.4500    -7.0530 c3         1 61S      -0.087400
     14 C71          6.2940    -2.9400    -6.4390 c3         1 61S      -0.035100
     15 C6           9.1400    -2.1920    -9.5350 ca         1 61S      -0.129000
     16 C4           8.1510    -3.6820    -7.9430 ca         1 61S      -0.124000
     17 N61          3.6230    -2.4550    -5.2850 ns         1 61S      -0.568900
     18 O60          3.0590    -3.5080    -3.4120 o          1 61S      -0.615100
     19 C51          2.8230    -1.1870    -3.3530 ca         1 61S      -0.196600
     20 C50          2.3580    -1.1870    -2.0360 ca         1 61S      -0.020000
     21 C52          2.9610     0.0230    -4.0420 ca         1 61S      -0.063000
     22 C53          2.6340     1.2060    -3.4230 ca         1 61S      -0.208000
     23 C54          2.1640     1.2020    -2.1120 ca         1 61S       0.225600
     24 N55          1.8330     2.4000    -1.4890 nv         1 61S      -0.926200
     25 C49          2.0310    -0.0000    -1.4210 ca         1 61S      -0.169300
     26 C48          1.5290     0.0000     0.0000 c3         1 61S      -0.018100
     27 C32         -0.5020     0.0000     1.4210 ca         1 61S      -0.093300
     28 C37         -0.7320     1.1980     2.0720 ca         1 61S      -0.114000
     29 C36         -1.1910     1.2000     3.3750 ca         1 61S      -0.149500
     30 C35         -1.4230    -0.0010     4.0300 ca         1 61S       0.101100
     31 O38         -1.8750    -0.0010     5.3110 oh         1 61S      -0.522100
     32 C34         -1.1920    -1.2010     3.3740 ca         1 61S      -0.149500
     33 C33         -0.7380    -1.1980     2.0700 ca         1 61S      -0.114000
     34 H1          -0.3610     0.8840    -0.5110 hc         1 61S       0.056700
     35 H2          -0.3610    -0.8850    -0.5100 hc         1 61S       0.056700
     36 H3           1.7860    -4.6000    -9.3120 hc         1 61S       0.049367
     37 H4           0.4470    -4.2730    -8.2030 hc         1 61S       0.049367
     38 H5           0.3080    -5.5670    -9.4000 hc         1 61S       0.049367
     39 H6           6.6830    -0.6450    -7.8100 ha         1 61S       0.129500
     40 H7           8.3290    -0.2110    -9.5960 ha         1 61S       0.130000
     41 H8           9.7500    -4.2240    -9.2600 ha         1 61S       0.130000
     42 H9          -0.1230    -7.0470    -6.8840 hc         1 61S       0.049367
     43 H10          0.0370    -5.3540    -6.3970 hc         1 61S       0.049367
     44 H11          1.1090    -6.5790    -5.7040 hc         1 61S       0.049367
     45 H12          2.2940    -8.0660    -7.7300 hc         1 61S       0.049367
     46 H13          0.9400    -7.7750    -8.8300 hc         1 61S       0.049367
     47 H14          2.5590    -7.2010    -9.2500 hc         1 61S       0.049367
     48 H15          4.4020    -4.3960    -5.2150 h1         1 61S       0.107700
     49 H16          4.5940    -2.7050    -7.7330 hc         1 61S       0.063700
     50 H17          5.1800    -4.3680    -7.5950 hc         1 61S       0.063700
     51 H18          6.6890    -3.6850    -5.7590 hc         1 61S       0.054200
     52 H19          6.1030    -2.0220    -5.8960 hc         1 61S       0.054200
     53 H20          9.8650    -2.0010   -10.3180 ha         1 61S       0.130000
     54 H21          8.1010    -4.6590    -7.4770 ha         1 61S       0.129500
     55 H22          3.6920    -1.5930    -5.7890 hn         1 61S       0.321500
     56 H23          2.2550    -2.1220    -1.4980 ha         1 61S       0.157000
     57 H24          3.3270     0.0270    -5.0620 ha         1 61S       0.122000
     58 H25          2.7410     2.1430    -3.9560 ha         1 61S       0.133000
     59 H26          1.5310     3.1820    -2.0370 hn         1 61S       0.433300
     60 H27          1.9050     2.4840    -0.4950 hn         1 61S       0.433300
     61 H28          1.8900    -0.8850     0.5100 hc         1 61S       0.047700
     62 H29          1.8910     0.8840     0.5110 hc         1 61S       0.047700
     63 H30         -0.5510     2.1350     1.5600 ha         1 61S       0.133000
     64 H31         -1.3710     2.1400     3.8840 ha         1 61S       0.140000
     65 H32         -1.1420     0.0080     5.9030 ho         1 61S       0.418000
     66 H33         -1.3740    -2.1400     3.8820 ha         1 61S       0.140000
     67 H34         -0.5570    -2.1350     1.5580 ha         1 61S       0.133000
     68 C59          3.1750    -2.4580    -4.0150 c          1 61S       0.690700
     69 O3           1.6650    -3.7790    -6.4180 o          1 61S      -0.539000
@<TRIPOS>BOND
     1    15     4 ar
     2    15     5 ar
     3     4     3 ar
     4     5    16 ar
     5     3     6 ar
     6    16     6 ar
     7     6    14 1
     8    14    13 1
     9    11     9 1
    10    10     9 1
    11    13    12 1
    12     9     8 1
    13     9     2 1
    14     8     7 1
    15     7    12 1
    16     7    69 2
    17    12    17 1
    18    17    68 1
    19    68    18 2
    20    68    19 1
    21    19    20 ar
    22    19    21 ar
    23    20    25 ar
    24    33    32 ar
    25    33    27 ar
    26     1    27 1
    27     1    26 1
    28    32    30 ar
    29    27    28 ar
    30    30    31 1
    31    30    29 ar
    32    28    29 ar
    33    21    22 ar
    34    25    26 1
    35    25    23 ar
    36    22    23 ar
    37    23    24 1
    38     1    34 1
    39     1    35 1
    40     2    36 1
    41     2    37 1
    42     2    38 1
    43     3    39 1
    44     4    40 1
    45     5    41 1
    46    10    42 1
    47    10    43 1
    48    10    44 1
    49    11    45 1
    50    11    46 1
    51    11    47 1
    52    12    48 1
    53    13    49 1
    54    13    50 1
    55    14    51 1
    56    14    52 1
    57    15    53 1
    58    16    54 1
    59    17    55 1
    60    20    56 1
    61    21    57 1
    62    22    58 1
    63    24    59 1
    64    24    60 1
    65    26    61 1
    66    26    62 1
    67    28    63 1
    68    29    64 1
    69    31    65 1
    70    32    66 1
    71    33    67 1
@<TRIPOS>SUBSTRUCTURE
     1 61S         1 TEMP              0 ****  ****    0 ROOT
