@<TRIPOS>MOLECULE
molecule
   44    46     1     0     0
SMALL
bcc


@<TRIPOS>ATOM
      1 CAA          0.0000     0.0000     0.0000 c3         1 61V      -0.092400
      2 CAB          1.5300     0.0000     0.0000 c3         1 61V       0.163800
      3 CAD          1.5890    -1.2060     2.1010 c3         1 61V       0.163800
      4 CAE          0.0600    -1.2430     2.1640 c3         1 61V      -0.092400
      5 CAF         -0.5050    -1.2420     0.7410 c3         1 61V       0.114700
      6 CAJ         -4.1340    -2.3440     0.9780 ca         1 61V      -0.132600
      7 CAK         -4.8510    -3.5350     1.1100 ca         1 61V      -0.089500
      8 CAL         -6.2290    -3.5050     1.1600 ca         1 61V      -0.108500
      9 CAM         -6.9020    -2.2980     1.0810 ca         1 61V       0.071900
     10 CAN         -6.1970    -1.1140     0.9500 ca         1 61V      -0.108500
     11 CAO         -4.8190    -1.1300     0.9040 ca         1 61V      -0.089500
     12 CAR          3.8730     1.4980     0.8990 ca         1 61V      -0.081300
     13 CAS          4.1190     1.6730    -0.4510 ca         1 61V      -0.117000
     14 CAT          4.4760     2.9180    -0.9320 ca         1 61V      -0.129500
     15 CAU          4.5880     3.9890    -0.0630 ca         1 61V      -0.127000
     16 CAV          4.3410     3.8130     1.2860 ca         1 61V      -0.129500
     17 CAW          3.9780     2.5680     1.7660 ca         1 61V      -0.117000
     18 NAC          2.0220     0.0000     1.3830 n3         1 61V      -0.728600
     19 NAG         -1.9690    -1.2180     0.7950 ns         1 61V      -0.577900
     20 OAI         -2.0650    -3.4270     0.9920 o          1 61V      -0.608100
     21 IAP         -8.9950    -2.2630     1.1590 i          1 61V      -0.162900
     22 H1          -0.3600     0.8900     0.5010 hc         1 61V       0.055700
     23 H2          -0.3610    -0.0180    -1.0210 hc         1 61V       0.055700
     24 H3           1.8890    -0.8860    -0.5090 h1         1 61V       0.039450
     25 H4           1.8900     0.8860    -0.5090 h1         1 61V       0.039450
     26 H5           1.9900    -1.1890     3.1070 h1         1 61V       0.039450
     27 H6           1.9480    -2.0840     1.5780 h1         1 61V       0.039450
     28 H7          -0.2580    -2.1420     2.6780 hc         1 61V       0.055700
     29 H8          -0.3000    -0.3700     2.6960 hc         1 61V       0.055700
     30 H9          -0.1710    -2.1320     0.2210 h1         1 61V       0.078700
     31 H10         -4.3260    -4.4800     1.1720 ha         1 61V       0.147000
     32 H11         -6.7860    -4.4290     1.2630 ha         1 61V       0.146000
     33 H12         -6.7290    -0.1720     0.8910 ha         1 61V       0.146000
     34 H13         -4.2700    -0.2020     0.8020 ha         1 61V       0.147000
     35 H14          3.8290     0.0330     2.4440 h1         1 61V       0.040700
     36 H15          3.9360    -0.6290     0.8070 h1         1 61V       0.040700
     37 H16          4.0310     0.8350    -1.1320 ha         1 61V       0.131000
     38 H17          4.6690     3.0560    -1.9890 ha         1 61V       0.129500
     39 H18          4.8700     4.9650    -0.4390 ha         1 61V       0.129000
     40 H19          4.4260     4.6520     1.9660 ha         1 61V       0.129500
     41 H20          3.7850     2.4310     2.8230 ha         1 61V       0.131000
     42 H22         -2.4580    -0.3480     0.7160 hn         1 61V       0.315500
     43 CAH         -2.6570    -2.3690     0.9230 c          1 61V       0.672700
     44 CAQ          3.4840     0.1390     1.4230 c3         1 61V       0.209100
@<TRIPOS>BOND
     1    14    13 ar
     2    14    15 ar
     3    13    12 ar
     4    15    16 ar
     5    12    44 1
     6    12    17 ar
     7    44    18 1
     8    16    17 ar
     9     3    18 1
    10     3     4 1
    11    18     2 1
    12     4     5 1
    13     2     1 1
    14     1     5 1
    15     5    19 1
    16    20    43 2
    17    19    43 1
    18    43     6 1
    19     6     7 ar
    20     6    11 ar
    21     7     8 ar
    22    11    10 ar
    23     8     9 ar
    24    10     9 ar
    25     9    21 1
    26     1    22 1
    27     1    23 1
    28     2    24 1
    29     2    25 1
    30     3    26 1
    31     3    27 1
    32     4    28 1
    33     4    29 1
    34     5    30 1
    35     7    31 1
    36     8    32 1
    37    10    33 1
    38    11    34 1
    39    44    35 1
    40    44    36 1
    41    13    37 1
    42    14    38 1
    43    15    39 1
    44    16    40 1
    45    17    41 1
    46    19    42 1
@<TRIPOS>SUBSTRUCTURE
     1 61V         1 TEMP              0 ****  ****    0 ROOT
