@<TRIPOS>MOLECULE
61X
   47    49     1     0     0
SMALL
bcc


@<TRIPOS>ATOM
      1 C1         -0.7460   -0.6510    0.2890 c3        1 61X     -0.940000
      2 F1         -3.6910   -8.1210    0.6700 f         1 61X     -0.161667
      3 N1         -2.6140   -6.1140    2.8030 n2        1 61X     -0.103000
      4 O1          1.2050   -0.0870   -1.2150 o         1 61X     -0.949000
      5 S1          0.8410   -0.9750   -0.1930 s6        1 61X      2.889000
      6 C2          1.6620   -0.6060    1.1890 c2        1 61X     -0.928000
      7 F2         -3.7280   -7.2020   -1.2890 f         1 61X     -0.161667
      8 O2          0.9660   -2.3490   -0.4680 o         1 61X     -0.949000
      9 C3          2.1320    0.8000    1.4980 c3        1 61X     -0.112000
     10 F3         -4.7010   -6.2220    0.3770 f         1 61X     -0.161667
     11 C4          2.8950    0.6460    2.7800 c2        1 61X      0.029000
     12 C5          2.8790   -0.6710    3.1750 c2        1 61X     -0.244000
     13 C6          3.5270   -1.1300    4.3700 c1        1 61X      0.053000
     14 C7          2.1050   -1.4320    2.1860 c2        1 61X      0.069000
     15 C8          3.2820   -3.5200    4.1810 c2        1 61X     -0.416000
     16 C9          4.1610   -3.9640    3.0640 c3        1 61X     -0.074000
     17 C10         3.6750   -5.2380    2.4650 c2        1 61X     -0.101000
     18 C11         2.6240   -5.8450    2.9460 c1        1 61X     -0.203000
     19 C12         1.6090   -6.4580    3.4980 c2        1 61X     -0.005000
     20 C13         2.2690   -4.2160    4.7010 c1        1 61X      0.198000
     21 C14         0.1930   -6.3040    3.1770 c2        1 61X     -0.014000
     22 C15        -0.6990   -6.3210    4.2690 c2        1 61X     -0.151000
     23 C16        -2.0740   -6.2090    4.0350 c2        1 61X     -0.073000
     24 C17        -1.7650   -6.1130    1.7600 c2        1 61X      0.023000
     25 C18        -0.3290   -6.1690    1.8830 c2        1 61X     -0.090000
     26 C19         0.5670   -6.0910    0.6680 c3        1 61X     -0.106000
     27 C20        -0.1310   -5.2890   -0.4020 c2        1 61X     -0.075000
     28 C21        -1.4040   -5.6370   -0.4740 c1        1 61X     -0.089000
     29 C22        -2.2790   -6.1700    0.3640 c2        1 61X     -0.120000
     30 C23        -3.5580   -6.9060    0.0420 c3        1 61X      0.499000
     31 H1         -1.1580   -1.4230    0.9860 h1        1 61X      0.157333
     32 H1A        -1.4390   -0.6270   -0.5910 h1        1 61X      0.157333
     33 H1B        -0.8650    0.3340    0.8020 h1        1 61X      0.157333
     34 H3          1.2680    1.5020    1.6320 hc        1 61X      0.150000
     35 H4          2.7860    1.1960    0.6760 hc        1 61X      0.150000
     36 H5          3.3790    1.4830    3.2900 ha        1 61X      0.171000
     37 H7          1.9360   -2.5130    2.2640 ha        1 61X      0.172000
     38 H9          4.2040   -3.1640    2.2730 hc        1 61X      0.113000
     39 H10         5.2080   -4.1090    3.4530 hc        1 61X      0.113000
     40 H11         4.2500   -5.6320    1.6110 ha        1 61X      0.158000
     41 H13         1.8090   -7.1670    4.3300 ha        1 61X      0.158000
     42 H15        -0.3140   -6.4060    5.2950 ha        1 61X      0.156000
     43 H16        -2.7970   -6.2010    4.8720 h4        1 61X      0.170000
     44 H19         0.8260   -7.1300    0.3330 hc        1 61X      0.126000
     45 H20         1.5210   -5.5560    0.9180 hc        1 61X      0.126000
     46 H21         0.3810   -4.4600   -0.9090 ha        1 61X      0.209000
     47 O3          3.7060   -2.3040    4.8170 os        1 61X      0.022000
@<TRIPOS>BOND
     1    1    5 1   
     2    1   31 1   
     3    1   32 1   
     4    1   33 1   
     5    2   30 1   
     6    3   23 1   
     7    3   24 1   
     8    4    5 1   
     9    5    6 1   
    10    5    8 1   
    11    6    9 1   
    12    6   14 1   
    13    7   30 1   
    14    9   11 1   
    15    9   34 1   
    16    9   35 1   
    17   10   30 1   
    18   11   12 1   
    19   11   36 1   
    20   12   13 1   
    21   12   14 1   
    22   13   47 1   
    23   14   37 1   
    24   15   16 1   
    25   15   20 1   
    26   15   47 1   
    27   16   17 1   
    28   16   38 1   
    29   16   39 1   
    30   17   18 1   
    31   17   40 1   
    32   18   19 1   
    33   19   21 1   
    34   19   41 1   
    35   21   22 1   
    36   21   25 1   
    37   22   23 1   
    38   22   42 1   
    39   23   43 1   
    40   24   25 1   
    41   24   29 1   
    42   25   26 1   
    43   26   27 1   
    44   26   44 1   
    45   26   45 1   
    46   27   28 1   
    47   27   46 1   
    48   28   29 1   
    49   29   30 1   
@<TRIPOS>SUBSTRUCTURE
     1 61X         1 TEMP              0 ****  ****    0 ROOT
