@<TRIPOS>MOLECULE
molecule
   47    50     1     0     0
SMALL
bcc


@<TRIPOS>ATOM
      1 C1           0.0000     0.0000     0.0000 c3         1 61X      -0.225300
      2 F1          -3.6700    -9.1900     1.0350 f          1 61X      -0.219967
      3 N1          -2.4470    -7.1590     2.7090 nb         1 61X      -0.679000
      4 O1           2.3120     1.2370    -0.4910 o          1 61X      -0.617300
      5 S1           1.8130     0.0000     0.0000 sy         1 61X       1.190300
      6 C2           2.2530     0.0000     1.7060 ca         1 61X      -0.261500
      7 F2          -4.0270    -8.3050    -1.0400 f          1 61X      -0.219967
      8 O2           2.3130    -1.2370    -0.4910 o          1 61X      -0.617300
      9 C3           2.4200     1.1980     2.3760 ca         1 61X      -0.063000
     10 F3          -4.6520    -7.1390     0.8210 f          1 61X      -0.219967
     11 C4           2.7650     1.2020     3.7150 ca         1 61X      -0.117000
     12 C5           2.9450     0.0080     4.3870 ca         1 61X      -0.101000
     13 C6           2.7770    -1.1960     3.7160 ca         1 61X       0.115100
     14 C7           2.4260    -1.1960     2.3740 ca         1 61X      -0.113000
     15 C8           2.7880    -3.5240     3.6750 ca         1 61X       0.092100
     16 C9           3.8690    -4.1030     3.0250 ca         1 61X      -0.122000
     17 C10          3.7070    -5.2760     2.3120 ca         1 61X      -0.114000
     18 C11          2.4680    -5.8800     2.2430 ca         1 61X      -0.113000
     19 C12          1.3750    -5.3070     2.8940 cp         1 61X      -0.043000
     20 C13          1.5410    -4.1270     3.6170 ca         1 61X      -0.123000
     21 C14          0.0450    -5.9530     2.8220 cp         1 61X       0.016000
     22 C15         -0.7000    -6.1910     3.9690 ca         1 61X      -0.248300
     23 C16         -1.9460    -6.7980     3.8660 ca         1 61X       0.450200
     24 C17         -1.7870    -6.9610     1.5630 ca         1 61X       0.453600
     25 C18         -0.5100    -6.3480     1.5790 ca         1 61X      -0.153300
     26 C19          0.1770    -6.1440     0.3750 ca         1 61X      -0.085000
     27 C20         -0.3890    -6.5380    -0.8000 ca         1 61X      -0.140000
     28 C21         -1.6450    -7.1420    -0.8200 ca         1 61X      -0.061000
     29 C22         -2.3400    -7.3550     0.3310 ca         1 61X      -0.225600
     30 C23         -3.6970    -8.0090     0.2860 c3         1 61X       0.687200
     31 H1          -0.3610    -0.8210     0.6070 h1         1 61X       0.099700
     32 H1A         -0.3610    -0.1150    -1.0150 h1         1 61X       0.099700
     33 H1B         -0.3610     0.9360     0.4080 h1         1 61X       0.099700
     34 H3           2.2800     2.1350     1.8520 ha         1 61X       0.153000
     35 H4           2.8960     2.1420     4.2380 ha         1 61X       0.144000
     36 H5           3.2150     0.0110     5.4360 ha         1 61X       0.149000
     37 H7           2.3100    -2.1340     1.8440 ha         1 61X       0.162000
     38 H9           4.8440    -3.6330     3.0760 ha         1 61X       0.150000
     39 H10          4.5540    -5.7230     1.8060 ha         1 61X       0.144000
     40 H11          2.3440    -6.7990     1.6810 ha         1 61X       0.145000
     41 H13          0.6960    -3.6770     4.1240 ha         1 61X       0.150000
     42 H15         -0.3120    -5.9040     4.9390 ha         1 61X       0.148000
     43 H16         -2.5190    -6.9790     4.7680 h4         1 61X       0.031100
     44 H19          1.1530    -5.6760     0.3780 ha         1 61X       0.151000
     45 H20          0.1430    -6.3800    -1.7300 ha         1 61X       0.143000
     46 H21         -2.0750    -7.4460    -1.7660 ha         1 61X       0.154000
     47 O3           2.9530    -2.3720     4.3750 os         1 61X      -0.247200
@<TRIPOS>BOND
     1     1     5 1   
     2     1    31 1   
     3     1    32 1   
     4     1    33 1   
     5    30     2 1   
     6    24     3 ar  
     7    23     3 ar  
     8     5     4 2   
     9     8     5 2   
    10     5     6 1   
    11     9     6 ar  
    12     6    14 ar  
    13     7    30 1   
    14     9    11 ar  
    15     9    34 1   
    16    30    10 1   
    17    13    47 1   
    18    15    47 1   
    19    11    12 ar  
    20    11    35 1   
    21    12    13 ar  
    22    12    36 1   
    23    14    13 ar  
    24    14    37 1   
    25    16    15 ar  
    26    15    20 ar  
    27    17    16 ar  
    28    16    38 1   
    29    17    18 ar  
    30    17    39 1   
    31    18    19 ar  
    32    18    40 1   
    33    19    20 ar  
    34    19    21 1   
    35    20    41 1   
    36    21    25 ar  
    37    21    22 ar  
    38    22    23 ar  
    39    22    42 1   
    40    23    43 1   
    41    25    24 ar  
    42    24    29 ar  
    43    26    25 ar  
    44    26    27 ar  
    45    26    44 1   
    46    27    28 ar  
    47    27    45 1   
    48    28    29 ar  
    49    28    46 1   
    50    29    30 1   
@<TRIPOS>SUBSTRUCTURE
     1 61X         1 TEMP              0 ****  ****    0 ROOT
