@<TRIPOS>MOLECULE
molecule
   38    41     1     0     0
SMALL
bcc


@<TRIPOS>ATOM
      1 C2           0.0000     0.0000     0.0000 ca         1 61Y      -0.145300
      2 C3           1.3960     0.0000     0.0000 ca         1 61Y       0.447200
      3 C7           1.4820     0.0000     2.3070 ca         1 61Y       0.450800
      4 C9           0.9320    -0.0010     4.4880 cc         1 61Y      -0.061100
      5 C10         -0.2520    -0.0000     3.8220 cd         1 61Y      -0.229000
      6 C11         -1.6040     0.0010     4.4190 ca         1 61Y       0.577100
      7 C13         -3.8980     0.0020     4.1760 ca         1 61Y       0.939900
      8 C15         -3.0510     0.0070     6.3200 ca         1 61Y       0.480600
      9 C16         -1.7680     0.0060     5.8090 ca         1 61Y      -0.394600
     10 C19         -4.1750     1.1870     8.1900 c3         1 61Y      -0.084100
     11 C20         -2.1530    -0.0050    -1.4230 cd         1 61Y       0.349200
     12 C21         -0.7530    -0.0060    -1.2810 cd         1 61Y      -0.250300
     13 C22         -0.2110    -0.0110    -2.5330 cc         1 61Y      -0.108300
     14 N23         -1.2300    -0.0150    -3.4170 na         1 61Y      -0.041600
     15 N1          -2.4320    -0.0160    -2.7000 nc         1 61Y      -0.510800
     16 N4           2.0810     0.0000     1.1230 nb         1 61Y      -0.710000
     17 C5          -0.6790    -0.0000     1.2170 ca         1 61Y      -0.033000
     18 C6           0.0780     0.0000     2.3870 ca         1 61Y      -0.178100
     19 N8           1.9620    -0.0010     3.5980 na         1 61Y      -0.270100
     20 N12         -2.6870     0.0010     3.6420 nb         1 61Y      -0.758000
     21 N14         -4.0820     0.0030     5.4880 nb         1 61Y      -0.761000
     22 N17         -5.0020     0.0030     3.3410 nv         1 61Y      -1.061500
     23 C18         -3.2770     0.0080     7.8100 c3         1 61Y      -0.130700
     24 H1           1.9260     0.0000    -0.9450 h4         1 61Y       0.019100
     25 H2           1.0390    -0.0010     5.5660 h4         1 61Y       0.172000
     26 H3          -0.9080     0.0100     6.4690 ha         1 61Y       0.139000
     27 H4          -3.7980     2.0910     7.7270 hc         1 61Y       0.040700
     28 H5          -5.1840     0.9980     7.8440 hc         1 61Y       0.040700
     29 H6          -4.1780     1.3070     9.2660 hc         1 61Y       0.040700
     30 H7          -2.8740    -0.0030    -0.6150 h4         1 61Y       0.056100
     31 H8           0.8450    -0.0100    -2.7730 h4         1 61Y       0.171000
     32 H9          -1.1420    -0.0210    -4.4140 hn         1 61Y       0.330700
     33 H10         -1.7620    -0.0000     1.2520 ha         1 61Y       0.166000
     34 H11          2.9320    -0.0010     3.8470 hn         1 61Y       0.307700
     35 H12         -5.4340    -0.8620     3.0810 hn         1 61Y       0.443800
     36 H13         -5.3910     0.8700     3.0260 hn         1 61Y       0.443800
     37 H14         -3.7550    -0.9190     8.1030 hc         1 61Y       0.055200
     38 H15         -2.3250     0.1000     8.3200 hc         1 61Y       0.055200
@<TRIPOS>BOND
     1    15    11 2   
     2    15    14 1   
     3    11    12 1   
     4    14    13 1   
     5    12    13 2   
     6    12     1 1   
     7     1     2 ar  
     8     1    17 ar  
     9     2    16 ar  
    10    17    18 ar  
    11    16     3 ar  
    12    23     8 1   
    13    23    10 1   
    14    18     3 ar  
    15    18     5 1   
    16     3    19 1   
    17     9     8 ar  
    18     9     6 ar  
    19     8    21 ar  
    20     5     6 1   
    21     5     4 2   
    22    19     4 1   
    23     6    20 ar  
    24    21     7 ar  
    25    20     7 ar  
    26     7    22 1   
    27     2    24 1   
    28     4    25 1   
    29     9    26 1   
    30    10    27 1   
    31    10    28 1   
    32    10    29 1   
    33    11    30 1   
    34    13    31 1   
    35    14    32 1   
    36    17    33 1   
    37    19    34 1   
    38    22    35 1   
    39    22    36 1   
    40    23    37 1   
    41    23    38 1   
@<TRIPOS>SUBSTRUCTURE
     1 61Y         1 TEMP              0 ****  ****    0 ROOT
