@<TRIPOS>MOLECULE
620
   38    40     1     0     0
SMALL
bcc


@<TRIPOS>ATOM
      1 CAR          0.0000     0.0000     0.0000 ca         1 620      -0.074500
      2 CAU          1.3820     0.0000     0.0000 ca         1 620      -0.104500
      3 CAV          2.0730     0.0000     1.1980 ca         1 620      -0.089000
      4 CAT          1.3810     0.0020     2.3950 ca         1 620      -0.104500
      5 CAS         -0.0020     0.0030     2.3940 ca         1 620      -0.074500
      6 CAN         -0.6920     0.0020     1.1960 ca         1 620      -0.116300
      7 CAM         -2.1980     0.0080     1.1950 c3         1 620       0.263700
      8 OAH         -2.6810    -1.3370     1.1930 os         1 620      -0.297900
      9 CAJ         -4.0290    -1.5090     1.1920 ca         1 620       0.153100
     10 CAK         -4.5660    -2.7880     1.1900 ca         1 620      -0.116000
     11 CAP         -4.8710    -0.4070     1.1990 ca         1 620      -0.204000
     12 CAO         -6.2400    -0.5830     1.1990 ca         1 620      -0.054000
     13 CAQ         -6.7740    -1.8600     1.1920 ca         1 620      -0.138000
     14 CAL         -5.9380    -2.9610     1.1890 ca         1 620      -0.083300
     15 CAI         -6.5210    -4.3500     1.1870 c3         1 620       0.224100
     16 NAF         -6.7120    -4.8040     2.5710 nu         1 620      -0.545500
     17 NAA         -7.2410    -6.0630     2.6050 na         1 620       0.451800
     18 NAC         -7.5770    -6.8770     1.5100 nc         1 620      -0.419800
     19 NAE         -8.0420    -7.9780     1.9930 nd         1 620       0.034000
     20 NAD         -8.0330    -7.9400     3.2770 nd         1 620      -0.404000
     21 CAB         -7.5480    -6.7940     3.7010 cc         1 620       0.328400
     22 NAG         -7.3860    -6.4080     5.0200 nv         1 620      -0.571500
     23 H1          -0.5410    -0.0000    -0.9380 ha         1 620       0.106500
     24 H2           1.9240    -0.0010    -0.9380 ha         1 620       0.104500
     25 H3           3.1560    -0.0010     1.1990 ha         1 620       0.103000
     26 H4           1.9220     0.0020     3.3330 ha         1 620       0.104500
     27 H5          -0.5440     0.0040     3.3320 ha         1 620       0.106500
     28 H6          -2.5580     0.5190     2.0810 h1         1 620       0.004700
     29 H7          -2.5570     0.5220     0.3120 h1         1 620       0.004700
     30 H8          -3.9110    -3.6510     1.1880 ha         1 620       0.126000
     31 H9          -4.4540     0.5930     1.2040 ha         1 620       0.122000
     32 H10         -6.8970     0.2780     1.2020 ha         1 620       0.104000
     33 H11         -7.8480    -1.9970     1.1910 ha         1 620       0.107000
     34 H12         -7.4760    -4.3400     0.6760 h1         1 620       0.036700
     35 H13         -5.8450    -5.0240     0.6760 h1         1 620       0.036700
     36 H14         -6.9430    -4.1440     3.2870 hn         1 620       0.317800
     37 H15         -7.9450    -5.6690     5.3970 hn         1 620       0.278800
     38 H16         -6.7260    -6.8840     5.6030 hn         1 620       0.278800
@<TRIPOS>BOND
     1     1     2 ar  
     2     1     6 ar  
     3     1    23 1   
     4     2     3 ar  
     5     2    24 1   
     6     3     4 ar  
     7     3    25 1   
     8     4     5 ar  
     9     4    26 1   
    10     5     6 ar  
    11     5    27 1   
    12     6     7 1   
    13     7     8 1   
    14     7    28 1   
    15     7    29 1   
    16     8     9 1   
    17     9    10 ar  
    18     9    11 ar  
    19    10    14 ar  
    20    10    30 1   
    21    11    12 ar  
    22    11    31 1   
    23    12    13 ar  
    24    12    32 1   
    25    13    14 ar  
    26    13    33 1   
    27    14    15 1   
    28    15    16 1   
    29    15    34 1   
    30    15    35 1   
    31    16    17 1   
    32    16    36 1   
    33    17    18 1   
    34    17    21 1   
    35    18    19 2   
    36    19    20 1   
    37    20    21 2   
    38    21    22 1   
    39    22    37 1   
    40    22    38 1   
@<TRIPOS>SUBSTRUCTURE
     1 620         1 TEMP              0 ****  ****    0 ROOT
