@<TRIPOS>MOLECULE
molecule
   38    40     1     0     0
SMALL
bcc


@<TRIPOS>ATOM
      1 CAR          0.0000     0.0000     0.0000 ca         1 620      -0.102500
      2 CAU          1.3820     0.0000     0.0000 ca         1 620      -0.131500
      3 CAV          2.0730     0.0000     1.1980 ca         1 620      -0.115000
      4 CAT          1.3810     0.0020     2.3950 ca         1 620      -0.131500
      5 CAS         -0.0020     0.0030     2.3940 ca         1 620      -0.102500
      6 CAN         -0.6920     0.0020     1.1960 ca         1 620      -0.098300
      7 CAM         -2.1980     0.0080     1.1950 c3         1 620       0.187700
      8 OAH         -2.6810    -1.3370     1.1930 os         1 620      -0.320900
      9 CAJ         -4.0290    -1.5090     1.1920 ca         1 620       0.142100
     10 CAK         -4.5660    -2.7880     1.1900 ca         1 620      -0.132000
     11 CAP         -4.8710    -0.4070     1.1990 ca         1 620      -0.213000
     12 CAO         -6.2400    -0.5830     1.1990 ca         1 620      -0.091000
     13 CAQ         -6.7740    -1.8600     1.1920 ca         1 620      -0.161000
     14 CAL         -5.9380    -2.9610     1.1890 ca         1 620      -0.080300
     15 CAI         -6.5210    -4.3500     1.1870 c3         1 620       0.257100
     16 NAF         -6.7120    -4.8040     2.5710 nu         1 620      -0.742500
     17 NAA         -7.2410    -6.0630     2.6050 na         1 620       0.124800
     18 NAC         -7.5770    -6.8770     1.5100 nc         1 620      -0.242800
     19 NAE         -8.0420    -7.9780     1.9930 nd         1 620      -0.007000
     20 NAD         -8.0330    -7.9400     3.2770 nd         1 620      -0.420000
     21 CAB         -7.5480    -6.7940     3.7010 cc         1 620       0.629400
     22 NAG         -7.3860    -6.4080     5.0200 nv         1 620      -1.034500
     23 H1          -0.5410    -0.0000    -0.9380 ha         1 620       0.133500
     24 H2           1.9240    -0.0010    -0.9380 ha         1 620       0.133000
     25 H3           3.1560    -0.0010     1.1990 ha         1 620       0.132000
     26 H4           1.9220     0.0020     3.3330 ha         1 620       0.133000
     27 H5          -0.5440     0.0040     3.3320 ha         1 620       0.133500
     28 H6          -2.5580     0.5190     2.0810 h1         1 620       0.041200
     29 H7          -2.5570     0.5220     0.3120 h1         1 620       0.041200
     30 H8          -3.9110    -3.6510     1.1880 ha         1 620       0.154000
     31 H9          -4.4540     0.5930     1.2040 ha         1 620       0.137000
     32 H10         -6.8970     0.2780     1.2020 ha         1 620       0.134000
     33 H11         -7.8480    -1.9970     1.1910 ha         1 620       0.132000
     34 H12         -7.4760    -4.3400     0.6760 h1         1 620       0.065700
     35 H13         -5.8450    -5.0240     0.6760 h1         1 620       0.065700
     36 H14         -6.9430    -4.1440     3.2870 hn         1 620       0.447800
     37 H15         -7.9450    -5.6690     5.3970 hn         1 620       0.450300
     38 H16         -6.7260    -6.8840     5.6030 hn         1 620       0.450300
@<TRIPOS>BOND
     1     3     4 ar
     2     3     2 ar
     3     4     5 ar
     4     2     1 ar
     5     5     6 ar
     6     1     6 ar
     7     6     7 1
     8    11    12 ar
     9    11     9 ar
    10     7     8 1
    11     8     9 1
    12    12    13 ar
    13     9    10 ar
    14    13    14 ar
    15    10    14 ar
    16    14    15 1
    17    15    16 1
    18    16    17 1
    19    22    21 1
    20    17    21 1
    21    17    18 1
    22    21    20 2
    23    18    19 2
    24    20    19 1
    25     1    23 1
    26     2    24 1
    27     3    25 1
    28     4    26 1
    29     5    27 1
    30     7    28 1
    31     7    29 1
    32    10    30 1
    33    11    31 1
    34    12    32 1
    35    13    33 1
    36    15    34 1
    37    15    35 1
    38    16    36 1
    39    22    37 1
    40    22    38 1
@<TRIPOS>SUBSTRUCTURE
     1 620         1 TEMP              0 ****  ****    0 ROOT
