@<TRIPOS>MOLECULE
molecule
   48    47     1     0     0
SMALL
bcc


@<TRIPOS>ATOM
      1 CAT          0.0000     0.0000     0.0000 c          1 621       0.658100
      2 OAV          1.2130     0.0000     0.0000 o          1 621      -0.615100
      3 CAU         -0.7530     0.0000     1.3050 c3         1 621      -0.166100
      4 NAS         -0.6750     0.0010    -1.1670 ns         1 621      -0.581900
      5 CAQ          0.0590     0.0020    -2.4360 c3         1 621       0.042000
      6 CAP         -0.9220     0.0030    -3.5810 c          1 621       0.652100
      7 OAR         -2.1140     0.0030    -3.3590 o          1 621      -0.630100
      8 NAM         -0.4730     0.0040    -4.8520 ns         1 621      -0.557900
      9 CAK         -1.4250     0.0050    -5.9660 c3         1 621       0.051700
     10 CAJ         -0.7720    -0.5950    -7.1840 c          1 621       0.667100
     11 OAL          0.3740    -0.9850    -7.1280 o          1 621      -0.609100
     12 CAN         -1.8510     1.4420    -6.2700 c3         1 621       0.125400
     13 OAO         -0.7230     2.1850    -6.7370 oh         1 621      -0.608800
     14 C           -1.5060    -0.7550   -10.7620 c          1 621       0.554100
     15 N           -1.4640    -0.6980    -8.3360 ns         1 621      -0.567900
     16 CA          -0.8320    -1.2810    -9.5210 c3         1 621       0.020700
     17 CB          -0.9670    -2.8040    -9.4750 c3         1 621      -0.086400
     18 CG          -0.1770    -3.3500    -8.2830 c3         1 621      -0.072700
     19 CAC         -0.8460    -0.9230   -12.1070 c3         1 621       0.045400
     20 CD1         -0.4130    -4.8570    -8.1630 c3         1 621      -0.089600
     21 CD2          1.3140    -3.0830    -8.4950 c3         1 621      -0.089600
     22 OXT         -1.6750    -0.3450   -13.1190 oh         1 621      -0.582800
     23 HAU         -0.1680     0.5120     2.0600 hc         1 621       0.061700
     24 HAUA        -0.9330    -1.0210     1.6180 hc         1 621       0.061700
     25 HAUB        -1.7000     0.5100     1.1750 hc         1 621       0.061700
     26 HNAS        -1.6750    -0.0350    -1.1670 hn         1 621       0.338500
     27 HAQ          0.6810     0.8860    -2.4930 h1         1 621       0.075700
     28 HAQA         0.6810    -0.8830    -2.4940 h1         1 621       0.075700
     29 HNAM         0.5110    -0.0180    -5.0350 hn         1 621       0.347500
     30 HAK         -2.2960    -0.5810    -5.6970 h1         1 621       0.101700
     31 HAN         -2.2390     1.9020    -5.3690 h1         1 621       0.039700
     32 HANA        -2.6200     1.4370    -7.0330 h1         1 621       0.039700
     33 HOAO        -0.9710     3.0850    -6.8660 ho         1 621       0.410000
     34 HN          -2.4130    -0.3800    -8.3800 hn         1 621       0.334500
     35 HA           0.2180    -1.0120    -9.5390 h1         1 621       0.099700
     36 HB          -2.0110    -3.0710    -9.3690 hc         1 621       0.050200
     37 HBA         -0.5770    -3.2290   -10.3920 hc         1 621       0.050200
     38 HG          -0.5070    -2.8590    -7.3760 hc         1 621       0.064700
     39 HAC         -0.7070    -1.9770   -12.3120 h1         1 621       0.047200
     40 HACA         0.1170    -0.4260   -12.1020 h1         1 621       0.047200
     41 HD1         -0.1750    -5.3360    -9.1050 hc         1 621       0.036700
     42 HD1A        -1.4520    -5.0410    -7.9160 hc         1 621       0.036700
     43 HD1B         0.2200    -5.2610    -7.3820 hc         1 621       0.036700
     44 HD2          1.5000    -2.0170    -8.4540 hc         1 621       0.036700
     45 HD2A         1.6160    -3.4660    -9.4620 hc         1 621       0.036700
     46 HD2B         1.8830    -3.5780    -7.7170 hc         1 621       0.036700
     47 HXT         -1.2470    -0.4200   -13.9560 ho         1 621       0.407000
     48 O           -2.5770    -0.2030   -10.6790 o          1 621      -0.493100
@<TRIPOS>BOND
     1    14    19 1
     2    14    16 1
     3    15    10 1
     4    15    34 1
     5    48    14 2
     6    16    15 1
     7    16    35 1
     8    17    16 1
     9    17    36 1
    10    17    37 1
    11    18    17 1
    12    18    21 1
    13    18    20 1
    14    18    38 1
    15    19    39 1
    16    19    22 1
    17    19    40 1
    18    10    11 2
    19    10     9 1
    20     9    12 1
    21     9     8 1
    22     9    30 1
    23     8     6 1
    24     8    29 1
    25    12    31 1
    26    12    32 1
    27    13    12 1
    28    13    33 1
    29     6     5 1
    30     5     4 1
    31     5    27 1
    32     5    28 1
    33     7     6 2
    34     4     1 1
    35     4    26 1
    36     1     3 1
    37     1     2 2
    38     3    23 1
    39     3    24 1
    40     3    25 1
    41    20    41 1
    42    20    42 1
    43    20    43 1
    44    21    44 1
    45    21    45 1
    46    21    46 1
    47    22    47 1
@<TRIPOS>SUBSTRUCTURE
     1 621         1 TEMP              0 ****  ****    0 ROOT
