@<TRIPOS>MOLECULE
molecule
   49    51     1     0     0
SMALL
bcc


@<TRIPOS>ATOM
      1 C1           0.0000     0.0000     0.0000 ca         1 623       0.160400
      2 F1          -0.6840    -0.0010    -1.1660 f          1 623      -0.036900
      3 C2           1.3860     0.0000     0.0000 ca         1 623       0.000700
      4 C3           2.0490     0.0000     1.2200 ca         1 623       0.160400
      5 F3           3.3990     0.0000     1.2630 f          1 623      -0.036900
      6 C4           1.3060     0.0010     2.3940 ca         1 623       0.151800
      7 N5          -0.0160     0.0010     2.3580 na         1 623      -0.135100
      8 C6          -0.6790     0.0060     1.2130 ca         1 623       0.151800
      9 C7           2.1570    -0.0030    -1.2950 c3         1 623      -0.069800
     10 O1           1.9460     0.0020     3.5920 os         1 623      -0.175700
     11 O2          -2.0360     0.0130     1.2220 os         1 623      -0.175700
     12 C21         -2.6640     0.9390     1.9940 ca         1 623       0.095600
     13 C22         -4.0440     1.0550     1.9520 ca         1 623      -0.042000
     14 C23         -4.6840     2.0050     2.7450 ca         1 623      -0.125900
     15 C24         -3.9320     2.8340     3.5780 ca         1 623      -0.130500
     16 C25         -2.5570     2.7100     3.6140 ca         1 623      -0.051500
     17 C26         -1.9240     1.7640     2.8300 ca         1 623      -0.209500
     18 C27         -6.1580     2.1360     2.7040 ce         1 623       0.520800
     19 N21         -6.8590     1.3620     1.9260 n2         1 623      -0.641100
     20 N22         -6.7890     3.0760     3.4900 nz         1 623      -0.800600
     21 C11          1.4320    -0.7650     4.5890 ca         1 623       0.095600
     22 C12          0.3610    -1.6100     4.3340 ca         1 623      -0.209500
     23 C13         -0.1650    -2.3910     5.3450 ca         1 623      -0.051500
     24 C14          0.3720    -2.3370     6.6140 ca         1 623      -0.130500
     25 C15          1.4490    -1.4920     6.8810 ca         1 623      -0.125900
     26 C16          1.9820    -0.7080     5.8590 ca         1 623      -0.042000
     27 C17          2.0270    -1.4310     8.2420 ce         1 623       0.520800
     28 N11          3.0320    -0.6410     8.4890 n2         1 623      -0.641100
     29 N12          1.5010    -2.2110     9.2500 nz         1 623      -0.800600
     30 HN5         -0.5280    -0.0020     3.2180 hn         1 623       0.359700
     31 H51          1.5170     0.3430    -2.0980 hc         1 623       0.108367
     32 H52          3.0130     0.6560    -1.2070 hc         1 623       0.108367
     33 H53          2.4970    -1.0080    -1.5110 hc         1 623       0.108367
     34 H22         -4.6250     0.4090     1.3040 ha         1 623       0.204000
     35 H24         -4.4250     3.5750     4.1950 ha         1 623       0.137000
     36 H25         -1.9730     3.3520     4.2620 ha         1 623       0.178000
     37 H26         -0.8450     1.6710     2.8620 ha         1 623       0.141000
     38 H21         -7.8560     1.4500     1.8970 hn         1 623       0.460400
     39 H221        -6.4640     3.9900     3.2420 hn         1 623       0.474800
     40 H222        -7.7780     3.0230     3.3450 hn         1 623       0.474800
     41 H12         -0.0640    -1.6560     3.3390 ha         1 623       0.141000
     42 H13         -1.0020    -3.0480     5.1390 ha         1 623       0.178000
     43 H14         -0.0440    -2.9500     7.4050 ha         1 623       0.137000
     44 H16          2.8190    -0.0500     6.0600 ha         1 623       0.204000
     45 HN11         3.4230    -0.6000     9.4090 hn         1 623       0.460400
     46 H121         2.0010    -2.0390    10.1000 hn         1 623       0.474800
     47 H122         1.5860    -3.1770     9.0030 hn         1 623       0.474800
     48 H223        -6.5870     2.8960     4.4530 hn         1 623       0.474800
     49 H123         0.5370    -1.9790     9.3830 hn         1 623       0.474800
@<TRIPOS>BOND
     1     1     2 1
     2     1     3 ar
     3     1     8 ar
     4     3     4 ar
     5     3     9 1
     6     4     5 1
     7     4     6 ar
     8     6     7 2
     9     6    10 1
    10     7     8 1
    11     7    30 1
    12     8    11 1
    13     9    31 1
    14     9    32 1
    15     9    33 1
    16    10    21 1
    17    11    12 1
    18    12    13 ar
    19    12    17 ar
    20    13    14 ar
    21    13    34 1
    22    14    15 ar
    23    14    18 1
    24    15    16 ar
    25    15    35 1
    26    16    17 ar
    27    16    36 1
    28    17    37 1
    29    18    19 2
    30    18    20 1
    31    19    38 1
    32    20    39 1
    33    20    40 1
    34    21    22 ar
    35    21    26 ar
    36    22    23 ar
    37    22    41 1
    38    23    24 ar
    39    23    42 1
    40    24    25 ar
    41    24    43 1
    42    25    26 ar
    43    25    27 1
    44    26    44 1
    45    27    28 2
    46    27    29 1
    47    28    45 1
    48    29    46 1
    49    29    47 1
    50    48    20 1
    51    49    29 1
@<TRIPOS>SUBSTRUCTURE
     1 623         1 TEMP              0 ****  ****    0 ROOT
