@<TRIPOS>MOLECULE
623
   49    51     1     0     0
SMALL
bcc


@<TRIPOS>ATOM
      1 C1           0.0000     0.0000     0.0000 ca         1 623       0.176900
      2 F1          -0.6840    -0.0010    -1.1660 f          1 623      -0.046900
      3 C2           1.3860     0.0000     0.0000 ca         1 623      -0.006300
      4 C3           2.0490     0.0000     1.2200 ca         1 623       0.176900
      5 F3           3.3990     0.0000     1.2630 f          1 623      -0.046900
      6 C4           1.3060     0.0010     2.3940 ca         1 623      -0.040700
      7 N5          -0.0160     0.0010     2.3580 na         1 623       0.437900
      8 C6          -0.6790     0.0060     1.2130 ca         1 623      -0.040700
      9 C7           2.1570    -0.0030    -1.2950 c3         1 623       0.046200
     10 O1           1.9460     0.0020     3.5920 os         1 623      -0.152200
     11 O2          -2.0360     0.0130     1.2220 os         1 623      -0.152200
     12 C21         -2.6640     0.9390     1.9940 ca         1 623       0.122100
     13 C22         -4.0440     1.0550     1.9520 ca         1 623      -0.062000
     14 C23         -4.6840     2.0050     2.7450 ca         1 623      -0.144400
     15 C24         -3.9320     2.8340     3.5780 ca         1 623      -0.099500
     16 C25         -2.5570     2.7100     3.6140 ca         1 623       0.009500
     17 C26         -1.9240     1.7640     2.8300 ca         1 623      -0.215000
     18 C27         -6.1580     2.1360     2.7040 ce         1 623       0.175800
     19 N21         -6.8590     1.3620     1.9260 n2         1 623      -0.407100
     20 N22         -6.7890     3.0760     3.4900 nz         1 623       0.192400
     21 C11          1.4320    -0.7650     4.5890 ca         1 623       0.122100
     22 C12          0.3610    -1.6100     4.3340 ca         1 623      -0.215000
     23 C13         -0.1650    -2.3910     5.3450 ca         1 623       0.009500
     24 C14          0.3720    -2.3370     6.6140 ca         1 623      -0.099500
     25 C15          1.4490    -1.4920     6.8810 ca         1 623      -0.144400
     26 C16          1.9820    -0.7080     5.8590 ca         1 623      -0.062000
     27 C17          2.0270    -1.4310     8.2420 ce         1 623       0.175800
     28 N11          3.0320    -0.6410     8.4890 n2         1 623      -0.407100
     29 N12          1.5010    -2.2110     9.2500 nz         1 623       0.192400
     30 HN5         -0.5280    -0.0020     3.2180 hn         1 623       0.190700
     31 H51          2.1890     1.0020    -1.6990 hc         1 623       0.062700
     32 H52          1.6710    -0.6620    -2.0040 hc         1 623       0.062700
     33 H53          3.1670    -0.3500    -1.1130 hc         1 623       0.062700
     34 H22         -4.6250     0.4090     1.3040 ha         1 623       0.142000
     35 H24         -4.4250     3.5750     4.1950 ha         1 623       0.111000
     36 H25         -1.9730     3.3520     4.2620 ha         1 623       0.137000
     37 H26         -0.8450     1.6710     2.8620 ha         1 623       0.107000
     38 H21         -6.4020     0.6790     1.3550 hn         1 623       0.376900
     39 H221        -7.7780     3.0230     3.3450 hn         1 623       0.229300
     40 H222        -6.5820     2.8990     4.4530 hn         1 623       0.229300
     41 H12         -0.0640    -1.6560     3.3390 ha         1 623       0.107000
     42 H13         -1.0020    -3.0480     5.1390 ha         1 623       0.137000
     43 H14         -0.0440    -2.9500     7.4050 ha         1 623       0.111000
     44 H16          2.8190    -0.0500     6.0600 ha         1 623       0.142000
     45 HN11         3.4160    -0.0740     7.7580 hn         1 623       0.376900
     46 H121         1.5970    -3.1770     9.0080 hn         1 623       0.229300
     47 H122         1.9930    -2.0310    10.1020 hn         1 623       0.229300
     48 H223        -6.4660     3.9900     3.2400 hn         1 623       0.229300
     49 H123         0.5340    -1.9860     9.3750 hn         1 623       0.229300
@<TRIPOS>BOND
     1     1     2 1   
     2     1     3 ar  
     3     1     8 ar  
     4     3     4 ar  
     5     3     9 1   
     6     4     5 1   
     7     4     6 ar  
     8     6     7 2   
     9     6    10 1   
    10     7     8 1   
    11     7    30 1   
    12     8    11 1   
    13     9    31 1   
    14     9    32 1   
    15     9    33 1   
    16    10    21 1   
    17    11    12 1   
    18    12    13 ar  
    19    12    17 ar  
    20    13    14 ar  
    21    13    34 1   
    22    14    15 ar  
    23    14    18 1   
    24    15    16 ar  
    25    15    35 1   
    26    16    17 ar  
    27    16    36 1   
    28    17    37 1   
    29    18    19 2   
    30    18    20 1   
    31    19    38 1   
    32    20    39 1   
    33    20    40 1   
    34    20    48 1   
    35    21    22 ar  
    36    21    26 ar  
    37    22    23 ar  
    38    22    41 1   
    39    23    24 ar  
    40    23    42 1   
    41    24    25 ar  
    42    24    43 1   
    43    25    26 ar  
    44    25    27 1   
    45    26    44 1   
    46    27    28 2   
    47    27    29 1   
    48    28    45 1   
    49    29    46 1   
    50    29    47 1   
    51    29    49 1   
@<TRIPOS>SUBSTRUCTURE
     1 623         1 TEMP              0 ****  ****    0 ROOT
