@<TRIPOS>MOLECULE
624
   67    69     1     0     0
SMALL
bcc


@<TRIPOS>ATOM
      1 CX           0.0000     0.0000     0.0000 c          1 624       0.552600
      2 CY           1.5070     0.0000     0.0000 c3         1 624      -0.056300
      3 CZ          -0.7320     0.3290    -1.2240 cc         1 624       0.369900
      4 OX          -0.6060    -0.2730     1.0160 o          1 624      -0.519100
      5 N02          1.9960     0.0000     1.3810 ns         1 624      -0.189900
      6 C06          2.0170    -1.2490    -0.7230 c3         1 624      -0.025400
      7 C07          3.5410    -1.1880    -0.8330 c3         1 624      -0.031400
      8 C08          4.0520    -2.4360    -1.5550 c3         1 624       0.140800
      9 N09          5.5110    -2.3770    -1.6610 nu         1 624      -0.495200
     10 C10          6.1980    -3.3970    -2.2760 c2         1 624       0.253100
     11 N11          5.5140    -4.4730    -2.7920 nz         1 624       0.189400
     12 NP2          7.4960    -3.3450    -2.3700 n2         1 624      -0.612100
     13 C18          2.1260     1.1620     2.0510 c          1 624       0.573100
     14 O19          1.8360     2.2090     1.5110 o          1 624      -0.618100
     15 C20          2.6280     1.1600     3.4710 c3         1 624      -0.092000
     16 N21          2.6780     2.5360     3.9730 n          1 624       0.124700
     17 C22          3.7620     3.3060     3.7340 c          1 624       0.601700
     18 C23          3.7780     4.6290     4.2390 cc         1 624      -0.100200
     19 C24          2.6920     5.0800     4.9380 cd         1 624      -0.026400
     20 N25          1.6470     4.2780     5.1390 nd         1 624      -0.454300
     21 C26          1.6260     3.0470     4.6780 cc         1 624       0.261500
     22 O27          4.7100     2.8680     3.1060 o          1 624      -0.729500
     23 N28          4.8830     5.4620     4.0220 nu         1 624      -0.361000
     24 C30          4.8820     6.8300     4.5450 c3         1 624       0.121500
     25 C31          5.3600     6.8210     5.9980 c3         1 624      -0.012100
     26 C32          5.8210     7.6970     3.7050 c3         1 624      -0.012100
     27 C33          0.4430     2.1990     4.9280 ca         1 624      -0.113900
     28 C34          0.5930     0.9430     5.5210 ca         1 624      -0.112000
     29 C35         -0.5160     0.1570     5.7520 ca         1 624      -0.089000
     30 C36         -1.7770     0.6080     5.3980 ca         1 624      -0.032600
     31 C37         -1.9320     1.8550     4.8110 ca         1 624      -0.039600
     32 C38         -0.8310     2.6530     4.5790 ca         1 624      -0.039000
     33 Cl1         -3.1670    -0.3880     5.6930 cl         1 624       0.009600
     34 Cl2         -3.5160     2.4130     4.3720 cl         1 624       0.015600
     35 N45         -0.2630     0.6570    -2.4240 nd         1 624      -0.558000
     36 C46         -1.0900     0.9130    -3.3990 cd         1 624       0.300200
     37 C47         -2.4380     0.8550    -3.1800 cc         1 624      -0.038400
     38 S48         -2.4950     0.4040    -1.5020 ss         1 624      -0.254300
     39 HY           1.8680     0.8850    -0.5100 h1         1 624       0.090700
     40 H02          2.2350    -0.8640     1.8270 hn         1 624       0.175500
     41 H061         1.7310    -2.1310    -0.1640 hc         1 624       0.033700
     42 H062         1.5850    -1.2930    -1.7150 hc         1 624       0.033700
     43 H071         3.8280    -0.3050    -1.3910 hc         1 624       0.040200
     44 H072         3.9730    -1.1430     0.1600 hc         1 624       0.040200
     45 H081         3.7650    -3.3190    -0.9960 h1         1 624       0.014700
     46 H082         3.6190    -2.4810    -2.5480 h1         1 624       0.014700
     47 H09          6.0090    -1.5920    -1.2910 hn         1 624       0.346800
     48 H111         6.1660    -5.1460    -3.1440 hn         1 624       0.225467
     49 H112         4.9190    -4.1650    -3.5360 hn         1 624       0.225467
     50 HP2          7.9950    -2.5630    -1.9950 hn         1 624       0.380400
     51 H201         1.9590     0.5740     4.0900 h1         1 624       0.071200
     52 H202         3.6210     0.7280     3.5030 h1         1 624       0.071200
     53 H24          2.6830     6.0890     5.3310 h4         1 624       0.144000
     54 H28          5.6570     5.1340     3.4790 hn         1 624       0.308800
     55 H30          3.8780     7.2350     4.4980 h1         1 624       0.040700
     56 H311         6.1910     6.1330     6.1010 hc         1 624       0.012700
     57 H312         4.5490     6.5060     6.6430 hc         1 624       0.012700
     58 H313         5.6790     7.8170     6.2800 hc         1 624       0.012700
     59 H321         5.8600     8.6970     4.1210 hc         1 624       0.012700
     60 H322         5.4540     7.7450     2.6860 hc         1 624       0.012700
     61 H323         6.8140     7.2650     3.7110 hc         1 624       0.012700
     62 H34          1.5780     0.5880     5.7990 ha         1 624       0.111000
     63 H35         -0.4000    -0.8180     6.2110 ha         1 624       0.117000
     64 H38         -0.9530     3.6270     4.1200 ha         1 624       0.135000
     65 H46         -0.7100     1.1710    -4.3800 h4         1 624       0.000100
     66 H47         -3.1950     0.6370    -3.9240 h4         1 624       0.177000
     67 H113         4.9540    -4.8890    -2.0750 hn         1 624       0.225467
@<TRIPOS>BOND
     1     1     2 1   
     2     1     3 1   
     3     1     4 2   
     4     2     5 1   
     5     2     6 1   
     6     2    39 1   
     7     3    35 2   
     8     3    38 1   
     9     5    13 1   
    10     5    40 1   
    11     6     7 1   
    12     6    41 1   
    13     6    42 1   
    14     7     8 1   
    15     7    43 1   
    16     7    44 1   
    17     8     9 1   
    18     8    45 1   
    19     8    46 1   
    20     9    10 1   
    21     9    47 1   
    22    10    11 1   
    23    10    12 2   
    24    11    48 1   
    25    11    49 1   
    26    11    67 1   
    27    12    50 1   
    28    13    14 2   
    29    13    15 1   
    30    15    16 1   
    31    15    51 1   
    32    15    52 1   
    33    16    17 1   
    34    16    21 1   
    35    17    18 1   
    36    17    22 2   
    37    18    19 2   
    38    18    23 1   
    39    19    20 1   
    40    19    53 1   
    41    20    21 2   
    42    21    27 1   
    43    23    24 1   
    44    23    54 1   
    45    24    25 1   
    46    24    26 1   
    47    24    55 1   
    48    25    56 1   
    49    25    57 1   
    50    25    58 1   
    51    26    59 1   
    52    26    60 1   
    53    26    61 1   
    54    27    28 ar  
    55    27    32 ar  
    56    28    29 ar  
    57    28    62 1   
    58    29    30 ar  
    59    29    63 1   
    60    30    31 ar  
    61    30    33 1   
    62    31    32 ar  
    63    31    34 1   
    64    32    64 1   
    65    35    36 1   
    66    36    37 2   
    67    36    65 1   
    68    37    38 1   
    69    37    66 1   
@<TRIPOS>SUBSTRUCTURE
     1 624         1 TEMP              0 ****  ****    0 ROOT
