@<TRIPOS>MOLECULE
molecule
   67    69     1     0     0
SMALL
bcc


@<TRIPOS>ATOM
      1 CX           0.0000     0.0000     0.0000 c          1 624       0.503600
      2 CY           1.5070     0.0000     0.0000 c3         1 624       0.047700
      3 CZ          -0.7320     0.3290    -1.2240 cc         1 624       0.370900
      4 OX          -0.6060    -0.2730     1.0160 o          1 624      -0.486100
      5 N02          1.9960     0.0000     1.3810 ns         1 624      -0.584900
      6 C06          2.0170    -1.2490    -0.7230 c3         1 624      -0.085400
      7 C07          3.5410    -1.1880    -0.8330 c3         1 624      -0.088400
      8 C08          4.0520    -2.4360    -1.5550 c3         1 624       0.202800
      9 N09          5.5110    -2.3770    -1.6610 nu         1 624      -0.856200
     10 C10          6.1980    -3.3970    -2.2760 c2         1 624       0.697100
     11 N11          5.5140    -4.4730    -2.7920 nz         1 624      -0.806600
     12 NP2          7.4960    -3.3450    -2.3700 n2         1 624      -0.778100
     13 C18          2.1260     1.1620     2.0510 c          1 624       0.650100
     14 O19          1.8360     2.2090     1.5110 o          1 624      -0.570100
     15 C20          2.6280     1.1600     3.4710 c3         1 624       0.007000
     16 N21          2.6780     2.5360     3.9730 n          1 624      -0.327300
     17 C22          3.7620     3.3060     3.7340 c          1 624       0.692700
     18 C23          3.7780     4.6290     4.2390 cc         1 624       0.046800
     19 C24          2.6920     5.0800     4.9380 cd         1 624       0.009600
     20 N25          1.6470     4.2780     5.1390 nd         1 624      -0.576300
     21 C26          1.6260     3.0470     4.6780 cc         1 624       0.472500
     22 O27          4.7100     2.8680     3.1060 o          1 624      -0.669500
     23 N28          4.8830     5.4620     4.0220 nu         1 624      -0.791000
     24 C30          4.8820     6.8300     4.5450 c3         1 624       0.235500
     25 C31          5.3600     6.8210     5.9980 c3         1 624      -0.109600
     26 C32          5.8210     7.6970     3.7050 c3         1 624      -0.109600
     27 C33          0.4430     2.1990     4.9280 ca         1 624      -0.113900
     28 C34          0.5930     0.9430     5.5210 ca         1 624      -0.125000
     29 C35         -0.5160     0.1570     5.7520 ca         1 624      -0.118000
     30 C36         -1.7770     0.6080     5.3980 ca         1 624       0.043400
     31 C37         -1.9320     1.8550     4.8110 ca         1 624       0.030400
     32 C38         -0.8310     2.6530     4.5790 ca         1 624      -0.061000
     33 Cl1         -3.1670    -0.3880     5.6930 cl         1 624      -0.074400
     34 Cl2         -3.5160     2.4130     4.3720 cl         1 624      -0.069400
     35 N45         -0.2630     0.6570    -2.4240 nd         1 624      -0.686000
     36 C46         -1.0900     0.9130    -3.3990 cd         1 624       0.327200
     37 C47         -2.4380     0.8550    -3.1800 cc         1 624      -0.152400
     38 S48         -2.4950     0.4040    -1.5020 ss         1 624      -0.120300
     39 HY           1.8680     0.8850    -0.5100 h1         1 624       0.120700
     40 H02          2.2340    -0.8640     1.8270 hn         1 624       0.314500
     41 H061         1.5850    -1.2930    -1.7150 hc         1 624       0.063700
     42 H062         1.7310    -2.1310    -0.1640 hc         1 624       0.063700
     43 H071         3.9730    -1.1430     0.1600 hc         1 624       0.075200
     44 H072         3.8280    -0.3050    -1.3910 hc         1 624       0.075200
     45 H081         3.7650    -3.3190    -0.9960 h1         1 624       0.039200
     46 H082         3.6190    -2.4810    -2.5480 h1         1 624       0.039200
     47 H09          6.0100    -1.5950    -1.2860 hn         1 624       0.514800
     48 H111         5.0080    -4.9320    -2.0610 hn         1 624       0.467800
     49 H112         4.8730    -4.1570    -3.4940 hn         1 624       0.467800
     50 HP2          7.9980    -4.0870    -2.8180 hn         1 624       0.441400
     51 H201         1.9590     0.5740     4.0900 h1         1 624       0.094700
     52 H202         3.6210     0.7280     3.5030 h1         1 624       0.094700
     53 H24          2.6830     6.0890     5.3310 h4         1 624       0.177000
     54 H28          5.6610     5.1310     3.4870 hn         1 624       0.455800
     55 H30          3.8780     7.2350     4.4980 h1         1 624       0.058700
     56 H311         6.2120     6.1580     6.0940 hc         1 624       0.045533
     57 H312         5.6470     7.8230     6.2910 hc         1 624       0.045533
     58 H313         4.5590     6.4730     6.6400 hc         1 624       0.045533
     59 H321         5.4860     7.6990     2.6750 hc         1 624       0.045533
     60 H322         5.8170     8.7110     4.0880 hc         1 624       0.045533
     61 H323         6.8260     7.2960     3.7560 hc         1 624       0.045533
     62 H34          1.5780     0.5880     5.7980 ha         1 624       0.140000
     63 H35         -0.4000    -0.8180     6.2110 ha         1 624       0.152000
     64 H38         -0.9530     3.6270     4.1200 ha         1 624       0.172000
     65 H46         -0.7100     1.1710    -4.3800 h4         1 624       0.043100
     66 H47         -3.1950     1.4160    -3.7150 h4         1 624       0.210000
     67 H113         6.1620    -5.1190    -3.1960 hn         1 624       0.467800
@<TRIPOS>BOND
     1     1     2 1   
     2     1     3 1   
     3     1     4 2   
     4     2     5 1   
     5     2     6 1   
     6     2    39 1   
     7     3    35 2   
     8     3    38 1   
     9     5    13 1   
    10     5    40 1   
    11     6     7 1   
    12     6    41 1   
    13     6    42 1   
    14     7     8 1   
    15     7    43 1   
    16     7    44 1   
    17     8     9 1   
    18     8    45 1   
    19     8    46 1   
    20     9    10 1   
    21     9    47 1   
    22    10    11 1   
    23    10    12 2   
    24    11    48 1   
    25    11    49 1   
    26    12    50 1   
    27    13    14 2   
    28    13    15 1   
    29    15    16 1   
    30    15    51 1   
    31    15    52 1   
    32    16    17 1   
    33    16    21 1   
    34    17    18 1   
    35    17    22 2   
    36    18    19 2   
    37    18    23 1   
    38    19    20 1   
    39    19    53 1   
    40    20    21 2   
    41    21    27 1   
    42    23    24 1   
    43    23    54 1   
    44    24    25 1   
    45    24    26 1   
    46    24    55 1   
    47    25    56 1   
    48    25    57 1   
    49    25    58 1   
    50    26    59 1   
    51    26    60 1   
    52    26    61 1   
    53    27    28 ar  
    54    27    32 ar  
    55    28    29 ar  
    56    28    62 1   
    57    29    30 ar  
    58    29    63 1   
    59    30    31 ar  
    60    30    33 1   
    61    31    32 ar  
    62    31    34 1   
    63    32    64 1   
    64    35    36 1   
    65    36    37 2   
    66    36    65 1   
    67    37    38 1   
    68    37    66 1   
    69    67    11 1   
@<TRIPOS>SUBSTRUCTURE
     1 624         1 TEMP              0 ****  ****    0 ROOT
