@<TRIPOS>MOLECULE
625
   55    58     1     0     0
SMALL
bcc


@<TRIPOS>ATOM
      1 C1          -4.8190    -0.0010    -0.6800 c1         1 625       0.174700
      2 N1          -5.8400    -0.0070    -0.1820 n1         1 625      -0.381800
      3 O1           0.0000     0.0000     0.0000 os         1 625      -0.316900
      4 Cl1          9.6610     1.8470    -2.0070 cl         1 625      -0.023400
      5 C2          10.3550    -2.5300    -1.1660 ca         1 625      -0.055000
      6 N2           7.8220     0.8450     0.9930 nb         1 625      -0.610000
      7 C3          11.4150    -1.6420    -1.1650 ca         1 625      -0.113000
      8 N3           6.3890    -0.4310    -1.1640 na         1 625       0.475900
      9 C4           6.2020     1.4100     3.1260 ca         1 625      -0.040000
     10 N4           9.3290     2.5430     1.5930 nv         1 625      -0.540500
     11 C5           9.0750    -2.0820    -1.4250 ca         1 625      -0.107000
     12 C6           3.6370     0.0000     0.0000 ca         1 625      -0.094000
     13 C7           2.8340    -0.0010    -2.2790 ca         1 625      -0.094000
     14 C8           2.3350     0.0000     0.4540 ca         1 625      -0.193000
     15 C9           1.5350    -0.0010    -1.8170 ca         1 625      -0.193000
     16 C10         11.2020    -0.2990    -1.4220 ca         1 625      -0.125000
     17 C11          5.7070     0.4250    -3.0900 cc         1 625      -0.170000
     18 C12          7.0940     0.2550    -3.1500 cc         1 625      -0.152000
     19 C13          5.8820     0.3940     2.2360 ca         1 625      -0.311300
     20 C14          7.3600     2.1350     2.9130 ca         1 625      -0.270300
     21 C15          3.8960    -0.0010    -1.3720 ca         1 625       0.034000
     22 C16          8.8520    -0.7300    -1.6860 ca         1 625       0.018000
     23 C17          1.2820     0.0000    -0.4520 ca         1 625       0.125100
     24 C18          9.9270     0.1630    -1.6830 ca         1 625      -0.014600
     25 C19          5.2890    -0.0020    -1.8630 cd         1 625      -0.262300
     26 C20          7.4970    -0.2720    -1.9580 cd         1 625      -0.237300
     27 C21          6.7230     0.1380     1.1710 ca         1 625       0.378600
     28 C22          8.1610     1.8230     1.8200 ca         1 625       0.516200
     29 C23         -3.5060    -0.0000    -1.3470 c3         1 625       0.133700
     30 C25         -2.3980     0.0000    -0.2920 c3         1 625      -0.082400
     31 C26         -1.0340     0.0000    -0.9860 c3         1 625       0.195400
     32 H2          10.6570    -3.5430    -0.9310 ha         1 625       0.103000
     33 H3          12.4560    -1.6330    -0.8670 ha         1 625       0.116000
     34 H4           5.3330     1.4180     3.7730 ha         1 625       0.119000
     35 HN4          9.4960     2.6950     0.6180 hn         1 625       0.272800
     36 HN4A         9.6610     3.1760     2.2930 hn         1 625       0.272800
     37 H5           8.1960    -2.6410    -1.7230 ha         1 625       0.118000
     38 H6           4.3680     0.1220     0.7890 ha         1 625       0.135000
     39 H7           2.5550     0.1320    -3.3170 ha         1 625       0.135000
     40 H8           2.3090     0.0080     1.5370 ha         1 625       0.122000
     41 H9           0.5520     0.2090    -2.2210 ha         1 625       0.122000
     42 H10         11.9430     0.4730    -1.2500 ha         1 625       0.112000
     43 H11          5.0080     0.8080    -3.8240 ha         1 625       0.126000
     44 H12          7.5650     0.3850    -4.1160 ha         1 625       0.131000
     45 H13          5.0960    -0.3020     2.5020 ha         1 625       0.123000
     46 H14          7.5460     2.8250     3.7270 ha         1 625       0.122000
     47 H23         -3.4090    -0.9600    -1.8410 hc         1 625       0.028200
     48 H23A        -3.6190     0.7190    -2.1500 hc         1 625       0.028200
     49 H24          5.3880    -1.3020     0.4700 h1         1 625       0.076200
     50 H24A         7.2860    -1.5570     0.1570 h1         1 625       0.076200
     51 H25         -2.4110     0.9060     0.3020 hc         1 625       0.032200
     52 H25A        -2.6350    -0.5230     0.6260 hc         1 625       0.032200
     53 H26         -0.8180     1.0170    -1.2910 h1         1 625       0.037700
     54 H26A        -1.2220    -0.8900    -1.5740 h1         1 625       0.037700
     55 C24          6.3810    -0.9630     0.2010 c3         1 625      -0.146000
@<TRIPOS>BOND
     1     1     2 3   
     2     1    29 1   
     3     3    23 1   
     4     3    31 1   
     5     4    24 1   
     6     5     7 ar  
     7     5    11 ar  
     8     5    32 1   
     9     6    27 ar  
    10     6    28 ar  
    11     7    16 ar  
    12     7    33 1   
    13     8    25 1   
    14     8    26 1   
    15     8    55 1   
    16     9    19 ar  
    17     9    20 ar  
    18     9    34 1   
    19    10    28 1   
    20    10    35 1   
    21    10    36 1   
    22    11    22 ar  
    23    11    37 1   
    24    12    14 ar  
    25    12    21 ar  
    26    12    38 1   
    27    13    15 ar  
    28    13    21 ar  
    29    13    39 1   
    30    14    23 ar  
    31    14    40 1   
    32    15    23 ar  
    33    15    41 1   
    34    16    24 ar  
    35    16    42 1   
    36    17    18 1   
    37    17    25 2   
    38    17    43 1   
    39    18    26 2   
    40    18    44 1   
    41    19    27 ar  
    42    19    45 1   
    43    20    28 ar  
    44    20    46 1   
    45    21    25 1   
    46    22    24 ar  
    47    22    26 1   
    48    27    55 1   
    49    29    30 1   
    50    29    47 1   
    51    29    48 1   
    52    30    31 1   
    53    30    51 1   
    54    30    52 1   
    55    31    53 1   
    56    31    54 1   
    57    49    55 1   
    58    50    55 1   
@<TRIPOS>SUBSTRUCTURE
     1 625         1 TEMP              0 ****  ****    0 ROOT
