@<TRIPOS>MOLECULE
626
   56    60     1     0     0
SMALL
bcc


@<TRIPOS>ATOM
      1 C1           0.0000     0.0000     0.0000 c          1 626       0.477900
      2 O2           1.2220     0.0000     0.0000 o          1 626      -0.550100
      3 N3          -0.6810     0.0000     1.2190 n          1 626       0.402800
      4 N4          -3.3620     0.0010     3.6120 na         1 626       0.401400
      5 C5          -1.5380    -0.0010     4.7820 cc         1 626       0.358200
      6 N6          -2.9100     0.0010     4.9110 nd         1 626      -0.617800
      7 N7          -0.6860    -0.0010     5.8860 ns         1 626      -0.120400
      8 C8          -1.0240    -0.0010     7.2490 c          1 626       0.597700
      9 C9           0.1060     0.0410     8.1640 ca         1 626      -0.199600
     10 O10         -2.1930    -0.0000     7.6580 o          1 626      -0.574100
     11 C11         -0.0130    -0.5010     9.4440 ca         1 626      -0.030500
     12 C12          1.0690    -0.4610    10.3210 ca         1 626      -0.157500
     13 C13          2.3910     0.6640     8.6400 ca         1 626      -0.157500
     14 C14          1.3070     0.6230     7.7620 ca         1 626      -0.030500
     15 C15         -2.3010     0.0010     2.7830 cc         1 626      -0.188300
     16 C16         -1.0830    -0.0010     3.4190 cc         1 626      -0.246300
     17 C17         -0.0730    -0.0010     2.5080 cd         1 626      -0.184300
     18 C18         -2.0680     0.0010     1.4620 cd         1 626      -0.370300
     19 N19          3.3800     0.1630    10.8180 nh         1 626      -0.403000
     20 C20          4.3480     1.2600    10.7290 c3         1 626       0.174800
     21 C21          5.1230     1.4020    12.0420 c3         1 626       0.146800
     22 N22          5.7380     0.1260    12.4320 n3         1 626      -0.538600
     23 C23          4.6970    -0.8930    12.6140 c3         1 626       0.146800
     24 C24          3.9100    -1.1110    11.3200 c3         1 626       0.174800
     25 C25          6.5190     0.2870    13.6580 c3         1 626       0.187100
     26 C26          2.2930     0.1220     9.9380 ca         1 626       0.078600
     27 C27          0.8910     0.4770    -4.6740 cc         1 626      -0.036100
     28 C28          1.3930    -0.6960    -4.1530 cd         1 626      -0.117000
     29 S29         -0.2510     1.2070    -3.6280 ss         1 626      -0.189800
     30 C30          0.8330    -0.9990    -2.8790 cd         1 626      -0.080000
     31 C31         -0.0630    -0.0460    -2.4950 cc         1 626      -0.054400
     32 C32         -0.8650     0.0010    -1.2230 c3         1 626      -0.004100
     33 H321        -1.5190    -0.8610    -1.1900 hc         1 626       0.048700
     34 H322        -1.4690     0.9000    -1.2240 hc         1 626       0.048700
     35 H17          0.9740    -0.1790     2.7180 h4         1 626       0.156000
     36 H18         -2.8340     0.0020     0.6960 h4         1 626       0.148000
     37 H4          -4.3220     0.0020     3.3290 hn         1 626       0.149700
     38 H7           0.2930    -0.0010     5.6800 hn         1 626       0.166500
     39 H11         -0.9470    -0.9530     9.7560 ha         1 626       0.113000
     40 H14          1.3990     1.0450     6.7680 ha         1 626       0.113000
     41 H12          0.9680    -0.8840    11.3130 ha         1 626       0.113000
     42 H13          3.3200     1.1190     8.3200 ha         1 626       0.113000
     43 H201         5.0450     1.0560     9.9250 h1         1 626       0.016700
     44 H202         3.8210     2.1840    10.5260 h1         1 626       0.016700
     45 H241         3.0850    -1.7870    11.5150 h1         1 626       0.016700
     46 H242         4.5640    -1.5430    10.5740 h1         1 626       0.016700
     47 H211         5.9010     2.1450    11.9150 h1         1 626       0.014200
     48 H212         4.4430     1.7200    12.8220 h1         1 626       0.014200
     49 H231         4.0170    -0.5700    13.3930 h1         1 626       0.014200
     50 H232         5.1630    -1.8270    12.9070 h1         1 626       0.014200
     51 H251         6.9770    -0.6580    13.9210 h1         1 626       0.001367
     52 H252         7.2900     1.0310    13.4990 h1         1 626       0.001367
     53 H253         5.8670     0.6090    14.4610 h1         1 626       0.001367
     54 H28          2.1270    -1.3150    -4.6540 ha         1 626       0.125000
     55 H30          1.0860    -1.8730    -2.2910 ha         1 626       0.129000
     56 H27          1.1840     0.8880    -5.6320 h4         1 626       0.148000
@<TRIPOS>BOND
     1     1     2 2   
     2     1     3 1   
     3     1    32 1   
     4     3    17 1   
     5     3    18 1   
     6     4     6 1   
     7     4    15 1   
     8     4    37 1   
     9     5     6 2   
    10     5     7 1   
    11     5    16 1   
    12     7     8 1   
    13     7    38 1   
    14     8     9 1   
    15     8    10 2   
    16     9    11 ar  
    17     9    14 ar  
    18    11    12 ar  
    19    11    39 1   
    20    12    26 ar  
    21    12    41 1   
    22    13    14 ar  
    23    13    26 ar  
    24    13    42 1   
    25    14    40 1   
    26    15    16 1   
    27    15    18 2   
    28    16    17 2   
    29    17    35 1   
    30    18    36 1   
    31    19    20 1   
    32    19    24 1   
    33    19    26 1   
    34    20    21 1   
    35    20    43 1   
    36    20    44 1   
    37    21    22 1   
    38    21    47 1   
    39    21    48 1   
    40    22    23 1   
    41    22    25 1   
    42    23    24 1   
    43    23    49 1   
    44    23    50 1   
    45    24    45 1   
    46    24    46 1   
    47    25    51 1   
    48    25    52 1   
    49    25    53 1   
    50    27    28 2   
    51    27    29 1   
    52    27    56 1   
    53    28    30 1   
    54    28    54 1   
    55    29    31 1   
    56    30    31 2   
    57    30    55 1   
    58    31    32 1   
    59    32    33 1   
    60    32    34 1   
@<TRIPOS>SUBSTRUCTURE
     1 626         1 TEMP              0 ****  ****    0 ROOT
