@<TRIPOS>MOLECULE
molecule
   65    69     1     0     0
SMALL
bcc


@<TRIPOS>ATOM
      1 N1           0.0000     0.0000     0.0000 n          1 627      -0.494800
      2 N2           1.2830    -0.0020     3.5250 na         1 627      -0.018600
      3 C3           3.0710    -0.0000     2.2500 cc         1 627       0.500200
      4 N4           2.6820    -0.0010     3.5020 nd         1 627      -0.472800
      5 N5           4.3970     0.0010     1.7990 ns         1 627      -0.536400
      6 C6           5.4100     0.0000     2.6880 c          1 627       0.670700
      7 C7           6.8070     0.0000     2.2130 ca         1 627      -0.179600
      8 O8           5.1730    -0.0000     3.8800 o          1 627      -0.556100
      9 C9           7.8600     0.0010     3.1340 ca         1 627      -0.059000
     10 C10          9.1610     0.0010     2.6880 ca         1 627      -0.180500
     11 C11          8.3850    -0.0040     0.4030 ca         1 627      -0.180500
     12 C12          7.0810    -0.0050     0.8430 ca         1 627      -0.059000
     13 C13          0.8430    -0.0010     2.2470 cd         1 627      -0.097600
     14 C14          1.9210     0.0000     1.4380 cc         1 627      -0.366600
     15 C15          1.4670     0.0000     0.0000 c3         1 627       0.195300
     16 C16         -0.4110    -0.0020     1.4090 c3         1 627       0.169300
     17 N17         10.7480     0.0010     0.8750 nh         1 627      -0.590000
     18 C18         10.8050     0.0020    -0.5930 c3         1 627       0.120300
     19 C19         12.2650     0.0830    -1.0440 c3         1 627       0.160300
     20 N20         13.0100    -1.0580    -0.4920 n3         1 627      -0.720600
     21 C21         12.9520    -1.0580     0.9770 c3         1 627       0.160300
     22 C22         11.4920    -1.1390     1.4270 c3         1 627       0.120300
     23 C23         12.5110    -2.3270    -1.0380 c3         1 627       0.141100
     24 C24          9.4310     0.0010     1.3220 ca         1 627       0.132600
     25 C25         -0.8090     0.0050    -1.0780 c          1 627       0.691100
     26 O26         -0.3350     0.1010    -2.1910 o          1 627      -0.567100
     27 C27         -2.8340     1.1660    -0.3000 ca         1 627      -0.126300
     28 C28         -3.1900     1.2050     1.0350 ca         1 627      -0.109000
     29 C29         -2.9620     2.2980    -1.0820 ca         1 627      -0.109000
     30 C31         -3.6740     2.3750     1.5870 ca         1 627      -0.131000
     31 C33         -3.4460     3.4690    -0.5300 ca         1 627      -0.131000
     32 C20         -2.3010    -0.1090    -0.9010 c3         1 627       0.126400
     33 C35         -3.8010     3.5080     0.8060 ca         1 627      -0.117000
     34 O34         -2.9150    -0.3300    -2.1720 os         1 627      -0.387600
     35 H15          1.8110     0.9140    -0.4690 h1         1 627       0.060700
     36 H16         -0.9950     0.8860     1.6210 h1         1 627       0.058700
     37 H9           7.6510     0.0010     4.1970 ha         1 627       0.141500
     38 H12          6.2670    -0.0090     0.1270 ha         1 627       0.141500
     39 H10          9.9770     0.0030     3.4010 ha         1 627       0.142500
     40 H11          8.5980    -0.0060    -0.6590 ha         1 627       0.142500
     41 H181        10.3620    -0.9110    -0.9710 h1         1 627       0.048950
     42 H182        10.2630     0.8590    -0.9750 h1         1 627       0.048950
     43 H221        11.4470    -1.1090     2.5090 h1         1 627       0.048950
     44 H222        11.0550    -2.0630     1.0680 h1         1 627       0.048950
     45 H191        12.7030     1.0060    -0.6850 h1         1 627       0.065950
     46 H192        12.3100     0.0520    -2.1260 h1         1 627       0.065950
     47 H211        13.3950    -0.1450     1.3550 h1         1 627       0.065950
     48 H212        13.4940    -1.9150     1.3590 h1         1 627       0.065950
     49 H231        11.4840    -2.4750    -0.7270 h1         1 627       0.035033
     50 H232        13.1210    -3.1430    -0.6700 h1         1 627       0.035033
     51 H233        12.5600    -2.2980    -2.1200 h1         1 627       0.035033
     52 H20         -2.5240    -0.9400    -0.2430 h1         1 627       0.052700
     53 H28         -3.0900     0.3170     1.6480 ha         1 627       0.139500
     54 H29         -2.6830     2.2680    -2.1290 ha         1 627       0.139500
     55 H31         -3.9530     2.4050     2.6340 ha         1 627       0.133500
     56 H33         -3.5460     4.3560    -1.1430 ha         1 627       0.133500
     57 H35         -4.1810     4.4250     1.2390 ha         1 627       0.132000
     58 H361        -4.5890    -1.1130    -3.0860 h1         1 627       0.035033
     59 H362        -4.7980    -0.6410    -1.3940 h1         1 627       0.035033
     60 H363        -3.8930    -2.1060    -1.7980 h1         1 627       0.035033
     61 HN5          4.5920    -0.0030     0.8170 hn         1 627       0.336500
     62 HN2          0.7080    -0.0020     4.3450 hn         1 627       0.333700
     63 H151         1.8110    -0.9140    -0.4690 h1         1 627       0.060700
     64 H161        -0.9930    -0.8910     1.6200 h1         1 627       0.058700
     65 C36         -4.1220    -1.0940    -2.1090 c3         1 627       0.124700
@<TRIPOS>BOND
     1     1    15 1
     2     1    16 1
     3     1    25 1
     4     2     4 1
     5     2    62 1
     6     2    13 1
     7     3     4 2
     8     3     5 1
     9     3    14 1
    10     5     6 1
    11     5    61 1
    12     6     7 1
    13     6     8 2
    14     7     9 ar
    15     7    12 ar
    16     9    10 ar
    17     9    37 1
    18    10    24 ar
    19    10    39 1
    20    11    12 ar
    21    11    24 ar
    22    11    40 1
    23    12    38 1
    24    13    14 2
    25    13    16 1
    26    14    15 1
    27    15    35 1
    28    15    63 1
    29    16    36 1
    30    16    64 1
    31    17    18 1
    32    17    22 1
    33    17    24 1
    34    18    19 1
    35    18    41 1
    36    18    42 1
    37    19    20 1
    38    19    45 1
    39    19    46 1
    40    20    21 1
    41    20    23 1
    42    21    22 1
    43    21    47 1
    44    21    48 1
    45    22    43 1
    46    22    44 1
    47    23    49 1
    48    23    50 1
    49    23    51 1
    50    25    26 2
    51    25    32 1
    52    27    28 ar
    53    27    29 ar
    54    27    32 1
    55    28    30 ar
    56    28    53 1
    57    29    31 ar
    58    29    54 1
    59    30    33 ar
    60    30    55 1
    61    31    33 ar
    62    31    56 1
    63    32    34 1
    64    32    52 1
    65    33    57 1
    66    65    34 1
    67    65    58 1
    68    65    59 1
    69    65    60 1
@<TRIPOS>SUBSTRUCTURE
     1 627         1 TEMP              0 ****  ****    0 ROOT
