@<TRIPOS>MOLECULE
628
   45    48     1     0     0
SMALL
bcc


@<TRIPOS>ATOM
      1 C1           0.0000     0.0000     0.0000 cc         1 628      -0.154600
      2 C2           1.3770     0.0000     0.0000 cd         1 628      -0.211300
      3 N3           2.0640     0.0000     1.1720 na         1 628       0.642700
      4 C4           1.3990    -0.0010     2.3720 cd         1 628      -0.204300
      5 C5          -0.0120    -0.0020     2.3970 cd         1 628      -0.051000
      6 C6          -0.7050    -0.0020     1.2310 cc         1 628      -0.077000
      7 C10          3.4080     0.0010     1.4560 cd         1 628      -0.465100
      8 C11          3.5280    -0.0000     2.8070 cc         1 628       0.130600
      9 N12          2.3020    -0.0070     3.3430 nc         1 628      -0.289600
     10 C14          4.6950     0.3460     7.6700 ca         1 628      -0.255500
     11 C15          3.6900     0.9290     6.9200 ca         1 628       0.030000
     12 C16          3.7030     0.8210     5.5430 ca         1 628      -0.167000
     13 C17          4.7210     0.1160     4.9130 ca         1 628       0.112600
     14 C18          5.7250    -0.4730     5.6690 ca         1 628      -0.167000
     15 C19          5.7090    -0.3560     7.0460 ca         1 628       0.030000
     16 C23         -0.7400     0.0000    -1.2750 c          1 628       0.650300
     17 C24         -2.2140     0.0730    -1.2730 ca         1 628      -0.166600
     18 C25         -2.9760    -1.0990    -1.3210 ca         1 628      -0.003100
     19 C26         -4.3540    -1.0220    -1.3130 ca         1 628      -0.098500
     20 C27         -4.9820     0.2090    -1.2700 ca         1 628      -0.057000
     21 C28         -4.2360     1.3740    -1.2280 ca         1 628      -0.098500
     22 C29         -2.8570     1.3150    -1.2300 ca         1 628      -0.003100
     23 O33         -0.1360    -0.0590    -2.3290 o          1 628      -0.514100
     24 O34          5.4520    -0.5970     9.9120 o          1 628      -0.503300
     25 N35          4.7340    -0.0000     3.5210 nu         1 628      -0.143400
     26 Cl2         -2.1900    -2.6450    -1.3770 cl         1 628       0.000100
     27 Cl1         -1.9220     2.7760    -1.1780 cl         1 628       0.000100
     28 N1           5.5280     1.8580     9.8180 nz         1 628      -0.136500
     29 O1           3.3280     0.7630     9.7780 o          1 628      -0.503300
     30 H2           1.9160     0.0010    -0.9400 h4         1 628       0.165000
     31 H5          -0.5390    -0.0030     3.3430 ha         1 628       0.131000
     32 H6          -1.7880    -0.0020     1.2400 ha         1 628       0.133000
     33 H10          4.2180     0.0060     0.7370 h4         1 628       0.173000
     34 H15          2.8870     1.4640     7.4140 ha         1 628       0.128500
     35 H16          2.9600     1.3430     4.9520 ha         1 628       0.146000
     36 H18          6.4960    -1.0590     5.1840 ha         1 628       0.146000
     37 H19          6.5140    -0.9580     7.4500 ha         1 628       0.128500
     38 H26         -4.9460    -1.9290    -1.3470 ha         1 628       0.124500
     39 H27         -6.0640     0.2630    -1.2660 ha         1 628       0.116000
     40 H28         -4.7350     2.3350    -1.1950 ha         1 628       0.124500
     41 H35          5.6050    -0.0480     3.0310 hn         1 628       0.295800
     42 HN11         5.5440     1.9670    10.8120 hn         1 628       0.311133
     43 HN12         6.4650     1.8730     9.4650 hn         1 628       0.311133
     44 H13          5.0060     2.6070     9.4080 hn         1 628       0.311133
     45 S1           4.6780     0.4920     9.4260 sy         1 628       0.930200
@<TRIPOS>BOND
     1     1     2 2   
     2     1     6 1   
     3     1    16 1   
     4     2     3 1   
     5     2    30 1   
     6     3     4 1   
     7     3     7 1   
     8     4     5 1   
     9     4     9 2   
    10     5     6 2   
    11     5    31 1   
    12     6    32 1   
    13     7     8 2   
    14     7    33 1   
    15     8     9 1   
    16     8    25 1   
    17    10    11 ar  
    18    10    15 ar  
    19    10    45 1   
    20    11    12 ar  
    21    11    34 1   
    22    12    13 ar  
    23    12    35 1   
    24    13    14 ar  
    25    13    25 1   
    26    14    15 ar  
    27    14    36 1   
    28    15    37 1   
    29    16    17 1   
    30    16    23 2   
    31    17    18 ar  
    32    17    22 ar  
    33    18    19 ar  
    34    18    26 1   
    35    19    20 ar  
    36    19    38 1   
    37    20    21 ar  
    38    20    39 1   
    39    21    22 ar  
    40    21    40 1   
    41    22    27 1   
    42    24    45 2   
    43    25    41 1   
    44    28    42 1   
    45    28    43 1   
    46    28    44 1   
    47    28    45 1   
    48    29    45 2   
@<TRIPOS>SUBSTRUCTURE
     1 628         1 TEMP              0 ****  ****    0 ROOT
