@<TRIPOS>MOLECULE
molecule
   45    48     1     0     0
SMALL
bcc


@<TRIPOS>ATOM
      1 C1           0.0000     0.0000     0.0000 cc         1 628      -0.193600
      2 C2           1.3770     0.0000     0.0000 cd         1 628      -0.006300
      3 N3           2.0640     0.0000     1.1720 na         1 628       0.054700
      4 C4           1.3990    -0.0010     2.3720 cd         1 628       0.024700
      5 C5          -0.0120    -0.0020     2.3970 cd         1 628      -0.113000
      6 C6          -0.7050    -0.0020     1.2310 cc         1 628      -0.071000
      7 C10          3.4080     0.0010     1.4560 cd         1 628      -0.271100
      8 C11          3.5280    -0.0000     2.8070 cc         1 628       0.297600
      9 N12          2.3020    -0.0070     3.3430 nc         1 628      -0.368600
     10 C14          4.6950     0.3460     7.6700 ca         1 628      -0.367500
     11 C15          3.6900     0.9290     6.9200 ca         1 628      -0.014000
     12 C16          3.7030     0.8210     5.5430 ca         1 628      -0.178000
     13 C17          4.7210     0.1160     4.9130 ca         1 628       0.277600
     14 C18          5.7250    -0.4730     5.6690 ca         1 628      -0.178000
     15 C19          5.7090    -0.3560     7.0460 ca         1 628      -0.014000
     16 C23         -0.7400     0.0000    -1.2750 c          1 628       0.605300
     17 C24         -2.2140     0.0730    -1.2730 ca         1 628      -0.153600
     18 C25         -2.9760    -1.0990    -1.3210 ca         1 628       0.059400
     19 C26         -4.3540    -1.0220    -1.3130 ca         1 628      -0.120500
     20 C27         -4.9820     0.2090    -1.2700 ca         1 628      -0.091000
     21 C28         -4.2360     1.3740    -1.2280 ca         1 628      -0.120500
     22 C29         -2.8570     1.3150    -1.2300 ca         1 628       0.059400
     23 O33         -0.1360    -0.0590    -2.3290 o          1 628      -0.486100
     24 O34          5.4520    -0.5970     9.9120 o          1 628      -0.527800
     25 N35          4.7340    -0.0000     3.5210 nu         1 628      -0.631400
     26 Cl2         -2.1900    -2.6450    -1.3770 cl         1 628      -0.079900
     27 Cl1         -1.9220     2.7760    -1.1780 cl         1 628      -0.079900
     28 N1           5.5280     1.8580     9.8180 nz         1 628      -0.804500
     29 O1           3.3280     0.7630     9.7780 o          1 628      -0.527800
     30 H2           1.9160     0.0010    -0.9400 h4         1 628       0.194000
     31 H5          -0.5390    -0.0030     3.3430 ha         1 628       0.168000
     32 H6          -1.7880    -0.0020     1.2400 ha         1 628       0.162000
     33 H10          4.2180     0.0060     0.7370 h4         1 628       0.191000
     34 H15          2.8870     1.4640     7.4140 ha         1 628       0.161500
     35 H16          2.9600     1.3430     4.9520 ha         1 628       0.175000
     36 H18          6.4960    -1.0590     5.1840 ha         1 628       0.175000
     37 H19          6.5140    -0.9580     7.4500 ha         1 628       0.161500
     38 H26         -4.9460    -1.9290    -1.3470 ha         1 628       0.158000
     39 H27         -6.0640     0.2630    -1.2660 ha         1 628       0.153000
     40 H28         -4.7350     2.3350    -1.1950 ha         1 628       0.158000
     41 H35          5.6050    -0.0480     3.0310 hn         1 628       0.472800
     42 HN11         5.5440     1.9670    10.8120 hn         1 628       0.488467
     43 HN12         6.4650     1.8730     9.4650 hn         1 628       0.488467
     44 H13          5.0060     2.6070     9.4080 hn         1 628       0.488467
     45 S1           4.6780     0.4920     9.4260 sy         1 628       1.224200
@<TRIPOS>BOND
     1     1     2 2   
     2     1     6 1   
     3     1    16 1   
     4     2     3 1   
     5     2    30 1   
     6     3     4 1   
     7     3     7 1   
     8     4     5 1   
     9     4     9 2   
    10     5     6 2   
    11     5    31 1   
    12     6    32 1   
    13     7     8 2   
    14     7    33 1   
    15     8     9 1   
    16     8    25 1   
    17    45    10 1   
    18    45    24 2   
    19    45    28 1   
    20    45    29 2   
    21    10    11 ar  
    22    10    15 ar  
    23    11    12 ar  
    24    11    34 1   
    25    12    13 ar  
    26    12    35 1   
    27    13    14 ar  
    28    13    25 1   
    29    14    15 ar  
    30    14    36 1   
    31    15    37 1   
    32    16    17 1   
    33    16    23 2   
    34    17    18 ar  
    35    17    22 ar  
    36    18    19 ar  
    37    18    26 1   
    38    19    20 ar  
    39    19    38 1   
    40    20    21 ar  
    41    20    39 1   
    42    21    22 ar  
    43    21    40 1   
    44    22    27 1   
    45    25    41 1   
    46    28    42 1   
    47    28    43 1   
    48    44    28 1   
@<TRIPOS>SUBSTRUCTURE
     1 628         1 TEMP              0 ****  ****    0 ROOT
