@<TRIPOS>MOLECULE
629
   54    55     1     0     0
SMALL
bcc


@<TRIPOS>ATOM
      1 C7           0.0000     0.0000     0.0000 ca         1 629      -0.126500
      2 C8           1.3810     0.0000     0.0000 ca         1 629      -0.081500
      3 C12         -0.6920    -0.0000     1.2020 ca         1 629       0.147100
      4 C11          0.0050    -0.0010     2.4010 ca         1 629      -0.126500
      5 C10          1.3870    -0.0070     2.3950 ca         1 629      -0.081500
      6 C9           2.0740     0.0000     1.1960 ca         1 629      -0.177300
      7 C14          3.5800     0.0000     1.1920 c3         1 629       0.036900
      8 C15          4.0910     1.4430     1.1920 c3         1 629      -0.154500
      9 C17          5.5970     1.4430     1.1890 c          1 629       0.503100
     10 N19          6.2730     1.4420     2.3540 ns         1 629       0.011100
     11 C20          7.7380     1.4420     2.3510 c3         1 629      -0.118300
     12 C21          8.2410     0.0220     2.3480 c          1 629       0.981600
     13 O23          7.4200    -0.9810     2.6970 o          1 629      -0.865300
     14 O18          6.2010     1.4430     0.1360 o          1 629      -0.677100
     15 N16          3.5970     2.1350    -0.0060 nz         1 629       0.085400
     16 O22          9.3830    -0.2150     2.0310 o          1 629      -0.865300
     17 C6           8.2510     2.1630     3.5980 c3         1 629       0.111500
     18 N5           7.6560     1.5540     4.7930 n3         1 629      -0.334100
     19 C4           8.2830     2.1810     5.9600 c3         1 629       0.092800
     20 C3           7.8990     3.6610     6.0190 c3         1 629       0.166100
     21 C2           8.4140     4.3640     4.7600 c3         1 629       0.128800
     22 C1           7.8670     3.6410     3.5260 c3         1 629       0.192100
     23 O28          8.0700     0.1500     4.7960 oh         1 629      -0.372300
     24 O32          6.4770     3.7840     6.0860 oh         1 629      -0.574800
     25 O29          7.9680     5.7230     4.7550 oh         1 629      -0.588800
     26 C30          9.9430     4.3270     4.7390 c3         1 629       0.173400
     27 O31         10.4520     5.0030     5.8910 oh         1 629      -0.613800
     28 O64          8.4210     4.2210     2.3450 oh         1 629      -0.569800
     29 O13         -2.0510     0.0010     1.2050 oh         1 629      -0.498100
     30 H7          -0.5420     0.0000    -0.9380 ha         1 629       0.124000
     31 H8           1.9220     0.0030    -0.9390 ha         1 629       0.110000
     32 H11         -0.5330    -0.0040     3.3410 ha         1 629       0.124000
     33 H10          1.9320    -0.0070     3.3310 ha         1 629       0.110000
     34 H141         3.9440    -0.5110     2.0750 hc         1 629       0.074700
     35 H142         3.9400    -0.5100     0.3060 hc         1 629       0.074700
     36 H15          3.7320     1.9530     2.0780 hx         1 629       0.080700
     37 H19          5.7740     1.4720     3.2210 hn         1 629       0.176500
     38 H20          8.0970     1.9530     1.4660 h1         1 629       0.077700
     39 H161         2.6390     2.3920     0.1280 hn         1 629       0.222133
     40 H162         3.6730     1.5280    -0.7970 hn         1 629       0.222133
     41 H6           9.3300     2.0760     3.6510 h1         1 629       0.066700
     42 H41          7.9410     1.6850     6.8600 h1         1 629       0.027700
     43 H42          9.3600     2.0920     5.8810 h1         1 629       0.027700
     44 H3           8.3480     4.1140     6.8940 h1         1 629       0.019700
     45 H1           6.7870     3.7310     3.5060 h1         1 629       0.012700
     46 H28          7.7740    -0.2630     5.5900 ho         1 629       0.382000
     47 H32          6.2250     4.0570     6.9530 ho         1 629       0.385000
     48 H29          8.3850     6.1930     5.4580 ho         1 629       0.405000
     49 H301        10.3040     4.8180     3.8440 h1         1 629       0.023200
     50 H302        10.2800     3.2970     4.7470 h1         1 629       0.023200
     51 H31         11.3700     5.1830     5.7700 ho         1 629       0.402000
     52 H64          7.8030     4.8290     1.9740 ho         1 629       0.387000
     53 H13         -2.3660    -0.8880     1.1750 ho         1 629       0.416000
     54 H163         4.1390     2.9630    -0.1590 hn         1 629       0.222133
@<TRIPOS>BOND
     1     1     2 ar  
     2     1     3 ar  
     3     1    30 1   
     4     2     6 ar  
     5     2    31 1   
     6     3     4 ar  
     7     3    29 1   
     8     4     5 ar  
     9     4    32 1   
    10     5     6 ar  
    11     5    33 1   
    12     6     7 1   
    13     7     8 1   
    14     7    34 1   
    15     7    35 1   
    16     8     9 1   
    17     8    15 1   
    18     8    36 1   
    19     9    10 1   
    20     9    14 2   
    21    10    11 1   
    22    10    37 1   
    23    11    12 1   
    24    11    17 1   
    25    11    38 1   
    26    12    13 1   
    27    12    16 1   
    28    15    39 1   
    29    15    40 1   
    30    15    54 1   
    31    17    18 1   
    32    17    22 1   
    33    17    41 1   
    34    18    19 1   
    35    18    23 1   
    36    19    20 1   
    37    19    42 1   
    38    19    43 1   
    39    20    21 1   
    40    20    24 1   
    41    20    44 1   
    42    21    22 1   
    43    21    25 1   
    44    21    26 1   
    45    22    28 1   
    46    22    45 1   
    47    23    46 1   
    48    24    47 1   
    49    25    48 1   
    50    26    27 1   
    51    26    49 1   
    52    26    50 1   
    53    27    51 1   
    54    28    52 1   
    55    29    53 1   
@<TRIPOS>SUBSTRUCTURE
     1 629         1 TEMP              0 ****  ****    0 ROOT
