@<TRIPOS>MOLECULE
molecule
   62    64     1     0     0
SMALL
bcc


@<TRIPOS>ATOM
      1 CX           0.0000     0.0000     0.0000 c          1 62A       0.508600
      2 CY           1.5070     0.0000     0.0000 c3         1 62A       0.044700
      3 CZ          -0.7320     0.3280    -1.2250 cc         1 62A       0.345900
      4 OX          -0.6070    -0.2720     1.0140 o          1 62A      -0.492100
      5 N1           1.9960     0.0000     1.3810 ns         1 62A      -0.568900
      6 C2           2.0170    -1.2500    -0.7210 c3         1 62A      -0.085400
      7 C3           3.5420    -1.1880    -0.8320 c3         1 62A      -0.088400
      8 C4           4.0520    -2.4380    -1.5530 c3         1 62A       0.203800
      9 N5           5.5120    -2.3790    -1.6580 nu         1 62A      -0.863200
     10 C6           6.1980    -3.3990    -2.2730 c2         1 62A       0.696100
     11 N7           5.5140    -4.4750    -2.7890 nz         1 62A      -0.805600
     12 N8           7.4970    -3.3470    -2.3660 n2         1 62A      -0.773100
     13 C9           2.1240     1.1630     2.0500 c          1 62A       0.654100
     14 O10          1.8360     2.2090     1.5090 o          1 62A      -0.587100
     15 C11          2.6270     1.1630     3.4710 c3         1 62A      -0.008000
     16 N12          2.6760     2.5390     3.9720 n          1 62A      -0.311300
     17 C13          3.7670     3.3190     3.7210 cc         1 62A       0.659500
     18 N14          3.8350     4.5570     4.1600 nd         1 62A      -0.636300
     19 C15          2.8480     5.1000     4.8700 cd         1 62A       0.264600
     20 C16          1.7290     4.3690     5.1590 cc         1 62A      -0.344200
     21 C17          1.6470     3.0350     4.6910 c          1 62A       0.717700
     22 N18          0.6830     4.9290     5.9050 nz         1 62A      -0.623400
     23 C19          4.8900     2.7650     2.9380 ca         1 62A      -0.184900
     24 C20          5.4890     1.5640     3.3240 ca         1 62A      -0.120000
     25 C21          6.5370     1.0520     2.5870 ca         1 62A      -0.127000
     26 C22          6.9950     1.7250     1.4690 ca         1 62A      -0.093000
     27 C23          6.4060     2.9160     1.0800 ca         1 62A      -0.074300
     28 C24          5.3610     3.4420     1.8110 ca         1 62A      -0.049000
     29 C25          6.9120     3.6430    -0.1390 c3         1 62A      -0.054800
     30 O26          0.6660     2.3500     4.9290 o          1 62A      -0.615500
     31 N27         -0.2630     0.6560    -2.4260 nd         1 62A      -0.682000
     32 C28         -1.0890     0.9120    -3.4010 cd         1 62A       0.323200
     33 C29         -2.4370     0.8540    -3.1820 cc         1 62A      -0.137400
     34 S30         -2.4950     0.4040    -1.5050 ss         1 62A      -0.100300
     35 HY           1.8680     0.8840    -0.5110 h1         1 62A       0.118700
     36 HN1          2.1980    -0.8660     1.8400 hn         1 62A       0.323500
     37 H21A         1.7310    -2.1320    -0.1620 hc         1 62A       0.071700
     38 H22A         1.5850    -1.2960    -1.7140 hc         1 62A       0.071700
     39 H31          3.8280    -0.3060    -1.3920 hc         1 62A       0.068200
     40 H32          3.9740    -1.1420     0.1600 hc         1 62A       0.068200
     41 H41          3.7650    -3.3200    -0.9940 h1         1 62A       0.043700
     42 H42          3.6200    -2.4830    -2.5460 h1         1 62A       0.043700
     43 HN5          6.0060    -1.5780    -1.3170 hn         1 62A       0.507800
     44 HN71         4.8740    -4.1580    -3.4900 hn         1 62A       0.470133
     45 HN72         5.0070    -4.9310    -2.0560 hn         1 62A       0.470133
     46 HN8          7.9980    -4.0900    -2.8130 hn         1 62A       0.448400
     47 H111         1.9580     0.5770     4.0900 h1         1 62A       0.113700
     48 H112         3.6200     0.7300     3.5030 h1         1 62A       0.113700
     49 H15          2.9310     6.1230     5.2180 h4         1 62A       0.187000
     50 H181         0.6970     5.9240     5.8040 hn         1 62A       0.460467
     51 H182         0.7960     4.6890     6.8700 hn         1 62A       0.460467
     52 H20          5.1320     1.0360     4.1990 ha         1 62A       0.137000
     53 H21          7.0030     0.1200     2.8860 ha         1 62A       0.148000
     54 H22          7.8170     1.3170     0.8930 ha         1 62A       0.148000
     55 H24          4.9000     4.3740     1.5060 ha         1 62A       0.162000
     56 H251         7.7700     3.1190    -0.5410 hc         1 62A       0.059033
     57 H252         6.1290     3.6810    -0.8870 hc         1 62A       0.059033
     58 H253         7.1990     4.6510     0.1350 hc         1 62A       0.059033
     59 H28         -0.7080     1.1760    -4.3800 h4         1 62A       0.049100
     60 H29         -3.2520     1.0360    -3.8710 h4         1 62A       0.216000
     61 H73          6.1630    -5.1220    -3.1910 hn         1 62A       0.470133
     62 H183        -0.1910     4.5690     5.5760 hn         1 62A       0.460467
@<TRIPOS>BOND
     1     1     2 1
     2     1     3 1
     3     1     4 2
     4     2     5 1
     5     2     6 1
     6     2    35 1
     7     3    31 2
     8     3    34 1
     9     5    13 1
    10     5    36 1
    11     6     7 1
    12     6    37 1
    13     6    38 1
    14     7     8 1
    15     7    39 1
    16     7    40 1
    17     8     9 1
    18     8    41 1
    19     8    42 1
    20     9    10 1
    21     9    43 1
    22    10    11 1
    23    10    12 2
    24    11    44 1
    25    11    45 1
    26    12    46 1
    27    13    14 2
    28    13    15 1
    29    15    16 1
    30    15    47 1
    31    15    48 1
    32    16    17 1
    33    16    21 1
    34    17    18 2
    35    17    23 1
    36    18    19 1
    37    19    20 2
    38    19    49 1
    39    20    21 1
    40    20    22 1
    41    21    30 2
    42    22    50 1
    43    22    51 1
    44    23    24 ar
    45    23    28 ar
    46    24    25 ar
    47    24    52 1
    48    25    26 ar
    49    25    53 1
    50    26    27 ar
    51    26    54 1
    52    27    28 ar
    53    27    29 1
    54    28    55 1
    55    29    56 1
    56    29    57 1
    57    29    58 1
    58    31    32 1
    59    32    33 2
    60    32    59 1
    61    33    34 1
    62    33    60 1
    63    61    11 1
    64    62    22 1
@<TRIPOS>SUBSTRUCTURE
     1 62A         1 TEMP              0 ****  ****    0 ROOT
