@<TRIPOS>MOLECULE
molecule
   41    42     1     0     0
SMALL
bcc


@<TRIPOS>ATOM
      1 C4           0.0000     0.0000     0.0000 c3         1 62C       0.106100
      2 C5           1.5310     0.0000     0.0000 c3         1 62C       0.142100
      3 C6           2.0420     1.2490    -0.7210 c3         1 62C       0.150400
      4 C8          -0.3910    -2.3780     4.2670 c          1 62C       0.664300
      5 C10         -0.8050    -3.5790     4.9940 ce         1 62C      -0.261200
      6 C13         -2.8250    -4.6150     8.1810 ca         1 62C      -0.115000
      7 C15         -3.7220    -6.8320     8.0470 ca         1 62C       0.026400
      8 C17         -2.9070    -5.7700     6.0580 ca         1 62C      -0.113000
      9 C16         -3.4810    -6.8590     6.6820 ca         1 62C       0.033400
     10 Cl2         -4.4430    -8.2060     8.8250 cl         1 62C      -0.082400
     11 C14         -3.3930    -5.7110     8.7930 ca         1 62C      -0.112000
     12 C12         -2.5790    -4.6340     6.8040 ca         1 62C      -0.060800
     13 C11         -0.8600    -3.5660     6.3410 cf         1 62C      -0.007200
     14 O9          -0.0960    -1.3670     4.8780 o          1 62C      -0.622100
     15 N7          -0.3360    -2.3900     2.9200 ns         1 62C      -0.561900
     16 C2           0.0780    -1.1890     2.1920 c3         1 62C       0.091700
     17 C1           1.6070    -1.1430     2.1080 c3         1 62C       0.321900
     18 O1           2.0840    -2.3290     1.4710 oh         1 62C      -0.628800
     19 C3          -0.5030    -1.2220     0.7760 c3         1 62C       0.119100
     20 O3          -1.9300    -1.1900     0.8440 oh         1 62C      -0.601800
     21 O4          -0.4770    -0.0570    -1.3460 oh         1 62C      -0.601800
     22 O5           2.0060     0.0000     1.3490 os         1 62C      -0.411600
     23 O6           3.4660     1.1920    -0.8240 oh         1 62C      -0.599800
     24 H41         -0.3600     0.9030     0.4780 h1         1 62C       0.056700
     25 H51          1.8900    -0.8870    -0.5070 h1         1 62C       0.079700
     26 H61          1.6100     1.2950    -1.7140 h1         1 62C       0.033700
     27 H62          1.7550     2.1320    -0.1620 h1         1 62C       0.033700
     28 H101        -1.0680    -4.4780     4.4500 ha         1 62C       0.138000
     29 H171        -2.7190    -5.7930     4.9910 ha         1 62C       0.151000
     30 H141        -3.5840    -5.6970     9.8590 ha         1 62C       0.154000
     31 H111        -0.5970    -2.6670     6.8860 ha         1 62C       0.180000
     32 H71         -0.6060    -3.2120     2.4160 hn         1 62C       0.322500
     33 H21         -0.2800    -0.3060     2.7080 h1         1 62C       0.107700
     34 H11          2.0200    -1.0730     3.1070 h2         1 62C       0.092700
     35 H12          2.9000    -2.5910     1.8650 ho         1 62C       0.418000
     36 H31         -0.1790    -2.1260     0.2750 h1         1 62C       0.064700
     37 H32         -2.2860    -1.8840     0.3140 ho         1 62C       0.410000
     38 H42         -1.1420     0.6000    -1.4720 ho         1 62C       0.412000
     39 H63          3.7730     1.9210    -1.3360 ho         1 62C       0.402000
     40 H131        -2.5710    -3.7390     8.7650 ha         1 62C       0.148000
     41 Cl1         -3.9020    -8.2650     5.7560 cl         1 62C      -0.082400
@<TRIPOS>BOND
     1    20    19 1
     2    10     7 1
     3    11     6 ar
     4    11     7 ar
     5     6    12 ar
     6     7     9 ar
     7    21     1 1
     8    19     1 1
     9    19    16 1
    10     1     2 1
    11    15    16 1
    12    15     4 1
    13     5     4 1
    14     5    13 2
    15    12    13 1
    16    12     8 ar
    17     9     8 ar
    18     9    41 1
    19    16    17 1
    20     4    14 2
    21     2     3 1
    22     2    22 1
    23    17    18 1
    24    17    22 1
    25    23     3 1
    26     1    24 1
    27     2    25 1
    28     3    26 1
    29     3    27 1
    30     5    28 1
    31     6    40 1
    32     8    29 1
    33    11    30 1
    34    13    31 1
    35    15    32 1
    36    16    33 1
    37    17    34 1
    38    18    35 1
    39    19    36 1
    40    20    37 1
    41    21    38 1
    42    23    39 1
@<TRIPOS>SUBSTRUCTURE
     1 62C         1 TEMP              0 ****  ****    0 ROOT
