@<TRIPOS>MOLECULE
62D
   33    35     1     0     0
SMALL
bcc


@<TRIPOS>ATOM
      1 N1           0.0000     0.0000     0.0000 na         1 62D       0.207700
      2 N3           1.8150     0.0000     1.2290 nc         1 62D      -0.593100
      3 C4           1.3670     0.0000     0.0000 cd         1 62D       0.337700
      4 C5           1.5390    -0.0010    -2.4580 c3         1 62D       0.197100
      5 C6           0.7660     0.0000     2.0980 ca         1 62D       0.061400
      6 C7           0.6850    -0.0000     3.4850 ca         1 62D       0.043000
      7 C8          -0.5640     0.0000     4.0980 ca         1 62D      -0.248600
      8 C10         -3.0430     0.0000     5.2490 cc         1 62D       0.395800
      9 C1          -1.7470     0.0000     3.3170 ca         1 62D       0.193400
     10 C2          -1.6550     0.0000     1.9270 ca         1 62D      -0.115000
     11 C3          -0.4120     0.0000     1.3210 ca         1 62D      -0.225200
     12 N2           2.1580    -0.0000    -1.1300 nu         1 62D      -0.472200
     13 C9          -0.7020    -0.0000     5.5610 c          1 62D       0.643100
     14 O1           0.2750    -0.0000     6.2870 o          1 62D      -0.666500
     15 N4          -1.9540    -0.0010     6.0730 ns         1 62D      -0.049400
     16 N5          -4.2930    -0.0000     5.8150 nu         1 62D      -0.474200
     17 C11         -5.4840    -0.0000     4.9620 c3         1 62D       0.176800
     18 N6          -2.9500     0.0000     3.9440 nd         1 62D      -0.644100
     19 C12         -6.7390    -0.0000     5.8380 c3         1 62D      -0.008100
     20 HN1         -0.5930     0.0000    -0.8060 hn         1 62D       0.130700
     21 H5           0.9240    -0.8860    -2.5690 h1         1 62D       0.003033
     22 H5A          0.9230     0.8830    -2.5700 h1         1 62D       0.003033
     23 H5B          2.3120    -0.0010    -3.2160 h1         1 62D       0.003033
     24 H7           1.5800    -0.1310     4.0800 ha         1 62D       0.128000
     25 H2          -2.5510     0.0920     1.3250 ha         1 62D       0.114000
     26 HN2          3.1550     0.0010    -1.0420 hn         1 62D       0.312800
     27 HN4         -2.0840    -0.0020     7.0660 hn         1 62D       0.174500
     28 HN5         -4.3910     0.0010     6.8110 hn         1 62D       0.289800
     29 H11         -5.4800     0.8850     4.3360 h1         1 62D       0.028200
     30 H11A        -5.4800    -0.8850     4.3360 h1         1 62D       0.028200
     31 H12         -6.7430     0.8850     6.4630 hc         1 62D       0.008367
     32 H12A        -7.6190    -0.0010     5.2070 hc         1 62D       0.008367
     33 H12B        -6.7420    -0.8840     6.4640 hc         1 62D       0.008367
@<TRIPOS>BOND
     1     1     3 1   
     2     1    11 1   
     3     1    20 1   
     4     2     3 2   
     5     2     5 1   
     6     3    12 1   
     7     4    12 1   
     8     4    21 1   
     9     4    22 1   
    10     4    23 1   
    11     5     6 ar  
    12     5    11 ar  
    13     6     7 ar  
    14     6    24 1   
    15     7     9 ar  
    16     7    13 1   
    17     8    15 1   
    18     8    16 1   
    19     8    18 2   
    20     9    10 ar  
    21     9    18 1   
    22    10    11 ar  
    23    10    25 1   
    24    12    26 1   
    25    13    14 2   
    26    13    15 1   
    27    15    27 1   
    28    16    17 1   
    29    16    28 1   
    30    17    19 1   
    31    17    29 1   
    32    17    30 1   
    33    19    31 1   
    34    19    32 1   
    35    19    33 1   
@<TRIPOS>SUBSTRUCTURE
     1 62D         1 TEMP              0 ****  ****    0 ROOT
