@<TRIPOS>MOLECULE
62E
   66    71     1     0     0
SMALL
bcc


@<TRIPOS>ATOM
      1 C4           0.0000     0.0000     0.0000 ca         1 62E       0.037000
      2 C5           1.3920     0.0000     0.0000 ca         1 62E      -0.047100
      3 C6           2.1000     0.0000     1.2060 ca         1 62E       0.136400
      4 C8           3.8840    -0.0000    -0.1780 cc         1 62E       0.332800
      5 C11         -2.8500     1.7190     1.0660 cc         1 62E       0.193700
      6 C15         -3.9160     3.6150     0.8520 cc         1 62E      -0.328300
      7 C26         -9.3870     0.2560     0.5760 cc         1 62E      -0.137000
      8 C3           1.3700     0.0010     2.4140 ca         1 62E      -0.067000
      9 C2           0.0090     0.0010     2.4030 ca         1 62E      -0.031000
     10 C25         -8.0490     0.5720     0.6760 cc         1 62E      -0.062000
     11 C27        -10.2060     1.3030     0.4310 cd         1 62E       0.029900
     12 C1          -0.6920     0.0070     1.1980 ca         1 62E       0.019900
     13 C20         -7.7750     1.8910     0.6160 cd         1 62E      -0.089600
     14 C16         -5.0410     4.4510     0.6990 cc         1 62E       0.046000
     15 C17         -6.2760     3.8920     0.6230 cd         1 62E      -0.266300
     16 C18         -6.4250     2.4870     0.6990 cd         1 62E       0.557800
     17 C22          6.1700    -0.0000     0.4380 c          1 62E       0.545100
     18 C32         10.8880     1.3120     2.3800 c3         1 62E      -0.026400
     19 C36         12.3440    -0.1260     0.9520 c3         1 62E      -0.026400
     20 C33         11.1830     2.4820     1.4390 c3         1 62E       0.144800
     21 C35         12.5960     1.0860     0.0530 c3         1 62E       0.144800
     22 C31         10.9600     0.0000     1.5940 c3         1 62E      -0.041700
     23 C38         13.0390     4.7050     0.9670 c3         1 62E      -0.002100
     24 C30          9.8880    -0.0000     0.5020 c3         1 62E      -0.059400
     25 C29          8.5010     0.0000     1.1480 c3         1 62E       0.059000
     26 N7           3.4370     0.0000     1.0290 nd         1 62E      -0.445100
     27 N13         -2.6190     3.8400     0.9530 nd         1 62E      -0.029000
     28 N12         -1.9960     2.7200     1.0790 nd         1 62E      -0.335700
     29 N19         -5.3760     1.7050     0.8420 nc         1 62E      -0.602800
     30 N14         -4.0940     2.2490     0.9220 na         1 62E       0.599300
     31 N21          5.2260    -0.0010    -0.5230 ns         1 62E      -0.013400
     32 N23          7.4750    -0.0010     0.1020 ns         1 62E      -0.218900
     33 N34         12.5180     2.3140     0.8520 n3         1 62E      -0.538600
     34 O24          5.8440     0.0000     1.6090 o          1 62E      -0.629100
     35 S28         -9.2720     2.7920     0.4150 ss         1 62E      -0.251800
     36 S9           2.5530    -0.0010    -1.3260 ss         1 62E      -0.238100
     37 S10         -2.4550     0.0070     1.2020 ss         1 62E      -0.221100
     38 H1          -0.5420     0.0040    -0.9380 ha         1 62E       0.121000
     39 H2          -9.7480    -0.7650     0.6100 ha         1 62E       0.126000
     40 H3           1.8990    -0.0040     3.3600 ha         1 62E       0.124000
     41 H4          -0.5350     0.0060     3.3400 ha         1 62E       0.120000
     42 H5          -7.2780    -0.1790     0.7960 ha         1 62E       0.140000
     43 H6         -11.2830     1.2420     0.3360 h4         1 62E       0.151000
     44 H7          -4.9210     5.5260     0.6410 ha         1 62E       0.128000
     45 H8          -7.1480     4.5230     0.5050 ha         1 62E       0.140000
     46 H9          11.6230     1.2960     3.1760 hc         1 62E       0.025200
     47 H10          9.8960     1.4280     2.8000 hc         1 62E       0.025200
     48 H11         12.3860    -1.0310     0.3580 hc         1 62E       0.025200
     49 H12         13.0990    -0.1620     1.7290 hc         1 62E       0.025200
     50 H13         10.4420     2.5030     0.6490 h1         1 62E       0.011950
     51 H14         11.1490     3.4100     1.9980 h1         1 62E       0.011950
     52 H15         11.8460     1.1170    -0.7280 h1         1 62E       0.011950
     53 H16         13.5820     1.0070    -0.3890 h1         1 62E       0.011950
     54 H17         10.7970    -0.8330     2.2670 hc         1 62E       0.031700
     55 H18         12.0820     5.2010     1.0660 hc         1 62E       0.007700
     56 H19         13.7600     5.3930     0.5410 hc         1 62E       0.007700
     57 H20         13.3820     4.3820     1.9430 hc         1 62E       0.007700
     58 H21         10.0000     0.8840    -0.1140 hc         1 62E       0.024200
     59 H22         10.0000    -0.8850    -0.1130 hc         1 62E       0.024200
     60 H23          8.3890    -0.8840     1.7640 h1         1 62E       0.032200
     61 H24          8.3890     0.8850     1.7620 h1         1 62E       0.032200
     62 H25         13.8320     3.2980    -0.4520 h1         1 62E       0.005200
     63 H26         12.1210     3.6830    -0.6850 h1         1 62E       0.005200
     64 H27          5.4940    -0.0020    -1.4880 hn         1 62E       0.166500
     65 H28          7.7440    -0.0230    -0.8620 hn         1 62E       0.165500
     66 C37         12.8910     3.4880     0.0510 c3         1 62E       0.153800
@<TRIPOS>BOND
     1     1     2 ar  
     2     1    12 ar  
     3     1    38 1   
     4     2     3 ar  
     5     2    36 1   
     6     3     8 ar  
     7     3    26 1   
     8     4    26 2   
     9     4    31 1   
    10     4    36 1   
    11     5    28 2   
    12     5    30 1   
    13     5    37 1   
    14     6    14 1   
    15     6    27 2   
    16     6    30 1   
    17     7    10 1   
    18     7    11 2   
    19     7    39 1   
    20     8     9 ar  
    21     8    40 1   
    22     9    12 ar  
    23     9    41 1   
    24    10    13 2   
    25    10    42 1   
    26    11    35 1   
    27    11    43 1   
    28    12    37 1   
    29    13    16 1   
    30    13    35 1   
    31    14    15 2   
    32    14    44 1   
    33    15    16 1   
    34    15    45 1   
    35    16    29 2   
    36    17    31 1   
    37    17    32 1   
    38    17    34 2   
    39    18    20 1   
    40    18    22 1   
    41    18    46 1   
    42    18    47 1   
    43    19    21 1   
    44    19    22 1   
    45    19    48 1   
    46    19    49 1   
    47    20    33 1   
    48    20    50 1   
    49    20    51 1   
    50    21    33 1   
    51    21    52 1   
    52    21    53 1   
    53    22    24 1   
    54    22    54 1   
    55    23    55 1   
    56    23    56 1   
    57    23    57 1   
    58    23    66 1   
    59    24    25 1   
    60    24    58 1   
    61    24    59 1   
    62    25    32 1   
    63    25    60 1   
    64    25    61 1   
    65    27    28 1   
    66    29    30 1   
    67    31    64 1   
    68    32    65 1   
    69    33    66 1   
    70    62    66 1   
    71    63    66 1   
@<TRIPOS>SUBSTRUCTURE
     1 62E         1 TEMP              0 ****  ****    0 ROOT
