@<TRIPOS>MOLECULE
molecule
   66    71     1     0     0
SMALL
bcc


@<TRIPOS>ATOM
      1 C4           0.0000     0.0000     0.0000 ca         1 62E      -0.007000
      2 C5           1.3920     0.0000     0.0000 ca         1 62E      -0.076100
      3 C6           2.1000     0.0000     1.2060 ca         1 62E       0.186400
      4 C8           3.8840    -0.0000    -0.1780 cc         1 62E       0.519800
      5 C11         -2.8500     1.7190     1.0660 cc         1 62E       0.355700
      6 C15         -3.9160     3.6150     0.8520 cc         1 62E      -0.135300
      7 C26         -9.3870     0.2560     0.5760 cc         1 62E      -0.165000
      8 C3           1.3700     0.0010     2.4140 ca         1 62E      -0.094000
      9 C2           0.0090     0.0010     2.4030 ca         1 62E      -0.064000
     10 C25         -8.0490     0.5720     0.6760 cc         1 62E      -0.099000
     11 C27        -10.2060     1.3030     0.4310 cd         1 62E      -0.055100
     12 C1          -0.6920     0.0070     1.1980 ca         1 62E      -0.029100
     13 C20         -7.7750     1.8910     0.6160 cd         1 62E      -0.117600
     14 C16         -5.0410     4.4510     0.6990 cc         1 62E      -0.014000
     15 C17         -6.2760     3.8920     0.6230 cd         1 62E      -0.260300
     16 C18         -6.4250     2.4870     0.6990 cd         1 62E       0.509800
     17 C22          6.1700    -0.0000     0.4380 c          1 62E       0.769100
     18 C32         10.8880     1.3120     2.3800 c3         1 62E      -0.076400
     19 C36         12.3440    -0.1260     0.9520 c3         1 62E      -0.076400
     20 C33         11.1830     2.4820     1.4390 c3         1 62E       0.161300
     21 C35         12.5960     1.0860     0.0530 c3         1 62E       0.161300
     22 C31         10.9600     0.0000     1.5940 c3         1 62E      -0.067700
     23 C38         13.0390     4.7050     0.9670 c3         1 62E      -0.094100
     24 C30          9.8880    -0.0000     0.5020 c3         1 62E      -0.104400
     25 C29          8.5010     0.0000     1.1480 c3         1 62E       0.128000
     26 N7           3.4370     0.0000     1.0290 nd         1 62E      -0.584100
     27 N13         -2.6190     3.8400     0.9530 nd         1 62E      -0.057000
     28 N12         -1.9960     2.7200     1.0790 nd         1 62E      -0.357700
     29 N19         -5.3760     1.7050     0.8420 nc         1 62E      -0.469800
     30 N14         -4.0940     2.2490     0.9220 na         1 62E       0.099300
     31 N21          5.2260    -0.0010    -0.5230 ns         1 62E      -0.469400
     32 N23          7.4750    -0.0010     0.1020 ns         1 62E      -0.602900
     33 N34         12.5180     2.3140     0.8520 n3         1 62E      -0.728600
     34 O24          5.8440     0.0000     1.6090 o          1 62E      -0.580100
     35 S28         -9.2720     2.7920     0.4150 ss         1 62E      -0.125800
     36 S9           2.5530    -0.0010    -1.3260 ss         1 62E      -0.161100
     37 S10         -2.4550     0.0070     1.2020 ss         1 62E      -0.087100
     38 H1          -0.5420     0.0040    -0.9380 ha         1 62E       0.147000
     39 H2          -9.7480    -0.7650     0.6100 ha         1 62E       0.156000
     40 H3           1.8990    -0.0040     3.3600 ha         1 62E       0.157000
     41 H4          -0.5350     0.0060     3.3400 ha         1 62E       0.149000
     42 H5          -7.2780    -0.1790     0.7960 ha         1 62E       0.170000
     43 H6         -11.2830     1.2420     0.3360 h4         1 62E       0.176000
     44 H7          -4.9210     5.5260     0.6410 ha         1 62E       0.168000
     45 H8          -7.1480     4.5230     0.5050 ha         1 62E       0.155000
     46 H9          11.6230     1.2960     3.1760 hc         1 62E       0.052700
     47 H10          9.8960     1.4280     2.8000 hc         1 62E       0.052700
     48 H11         12.3860    -1.0310     0.3580 hc         1 62E       0.052700
     49 H12         13.0990    -0.1620     1.7290 hc         1 62E       0.052700
     50 H13         10.4420     2.5030     0.6490 h1         1 62E       0.033700
     51 H14         11.1490     3.4100     1.9980 h1         1 62E       0.033700
     52 H15         11.8460     1.1170    -0.7280 h1         1 62E       0.033700
     53 H16         13.5820     1.0070    -0.3890 h1         1 62E       0.033700
     54 H17         10.7970    -0.8330     2.2670 hc         1 62E       0.055700
     55 H18         12.0820     5.2010     1.0660 hc         1 62E       0.040033
     56 H19         13.7600     5.3930     0.5410 hc         1 62E       0.040033
     57 H20         13.3820     4.3820     1.9430 hc         1 62E       0.040033
     58 H21         10.0000     0.8840    -0.1140 hc         1 62E       0.047700
     59 H22         10.0000    -0.8850    -0.1130 hc         1 62E       0.047700
     60 H23          8.3890    -0.8840     1.7640 h1         1 62E       0.057700
     61 H24          8.3890     0.8850     1.7620 h1         1 62E       0.057700
     62 H25         13.8320     3.2980    -0.4520 h1         1 62E       0.030700
     63 H26         12.1210     3.6830    -0.6850 h1         1 62E       0.030700
     64 H27          5.4940    -0.0020    -1.4880 hn         1 62E       0.330500
     65 H28          7.7440    -0.0230    -0.8620 hn         1 62E       0.304500
     66 C37         12.8910     3.4880     0.0510 c3         1 62E       0.160800
@<TRIPOS>BOND
     1    37     5 1
     2    37    12 1
     3     5    28 2
     4     5    30 1
     5    28    27 1
     6    12     9 ar
     7    12     1 ar
     8    27     6 2
     9    30    29 1
    10    30     6 1
    11    29    16 2
    12     9     8 ar
    13    35    11 1
    14    35    13 1
    15     6    14 1
    16     1     2 ar
    17    11     7 2
    18    16    13 1
    19    16    15 1
    20    13    10 2
    21    14    15 2
    22     8     3 ar
    23     7    10 1
    24     2     3 ar
    25     2    36 1
    26     3    26 1
    27    36     4 1
    28    26     4 2
    29     4    31 1
    30    31    17 1
    31    34    17 2
    32    17    32 1
    33    32    25 1
    34    25    24 1
    35    24    22 1
    36    19    22 1
    37    19    21 1
    38    22    18 1
    39    21    33 1
    40    18    20 1
    41    33    20 1
    42    33    66 1
    43    66    23 1
    44     1    38 1
    45     7    39 1
    46     8    40 1
    47     9    41 1
    48    10    42 1
    49    11    43 1
    50    14    44 1
    51    15    45 1
    52    18    46 1
    53    18    47 1
    54    19    48 1
    55    19    49 1
    56    20    50 1
    57    20    51 1
    58    21    52 1
    59    21    53 1
    60    22    54 1
    61    23    55 1
    62    23    56 1
    63    23    57 1
    64    24    58 1
    65    24    59 1
    66    25    60 1
    67    25    61 1
    68    66    62 1
    69    66    63 1
    70    31    64 1
    71    32    65 1
@<TRIPOS>SUBSTRUCTURE
     1 62E         1 TEMP              0 ****  ****    0 ROOT
