@<TRIPOS>MOLECULE
62I
   53    54     1     0     0
SMALL
bcc


@<TRIPOS>ATOM
      1 C1           0.0000     0.0000     0.0000 c3         1 62I       0.180900
      2 O2           2.0080    -1.1680    -0.6720 oh         1 62I      -0.557800
      3 C5          -0.0760    -1.1670     2.0940 c3         1 62I       0.153100
      4 C2           1.5310     0.0000     0.0000 c3         1 62I       0.164100
      5 C3           2.0340     0.0000     1.4470 c3         1 62I       0.158100
      6 O3           3.4600    -0.0740     1.4560 oh         1 62I      -0.562800
      7 C4           1.4520    -1.2140     2.1770 c3         1 62I       0.155100
      8 O4           1.8560    -1.1860     3.5480 oh         1 62I      -0.578800
      9 C6          -0.5880     0.0890     2.8010 c3         1 62I       0.176400
     10 O6          -2.0390     0.0750     2.8240 os         1 62I      -0.436900
     11 CAW         -2.6490     1.1140     3.4140 c          1 62I       0.677100
     12 OAX         -1.9930     2.0070     3.8940 o          1 62I      -0.556000
     13 CAY         -4.1540     1.1680     3.4760 c3         1 62I      -0.028100
     14 O5          -0.4750    -1.1380     0.7220 os         1 62I      -0.366600
     15 SAG         -0.6050    -0.0710    -1.7090 s6         1 62I       0.988900
     16 OAH         -0.3090     1.1370    -2.3940 o          1 62I      -0.550800
     17 OAJ         -0.3090    -1.3340    -2.2910 o          1 62I      -0.550800
     18 NAB         -2.2550    -0.0650    -1.5640 n3         1 62I      -0.552500
     19 CAC         -3.0000     1.2010    -1.5510 c3         1 62I       0.253300
     20 CAD         -3.8850     1.2390    -0.3020 c3         1 62I      -0.064900
     21 CAA         -3.0010    -1.3260    -1.4510 c3         1 62I       0.253300
     22 CAF         -3.8860    -1.2650    -0.2030 c3         1 62I      -0.064900
     23 CAE         -4.7690    -0.0110    -0.2680 c3         1 62I       0.176100
     24 OAK         -5.6190     0.0380     0.8790 os         1 62I      -0.433500
     25 SAL         -7.0000    -0.5610     0.6520 s6         1 62I       1.276400
     26 OAN         -7.7660    -0.2520     1.8080 o          1 62I      -0.509300
     27 OAO         -7.3890    -0.1840    -0.6620 o          1 62I      -0.509300
     28 NAM         -6.8230    -2.2070     0.6340 nz         1 62I      -0.186500
     29 H1          -0.3590     0.9040     0.4780 h2         1 62I       0.060700
     30 H2           2.7100    -0.9300    -1.2560 ho         1 62I       0.412000
     31 H3          -0.4880    -2.0490     2.5690 h1         1 62I       0.052700
     32 H4           1.8910     0.8880    -0.5060 h1         1 62I       0.027700
     33 H5           1.7100     0.9080     1.9410 h1         1 62I       0.018700
     34 H6           3.8160     0.7470     1.7540 ho         1 62I       0.401000
     35 H7           1.8110    -2.1230     1.7080 h1         1 62I       0.049700
     36 H8           2.1640    -2.0400     3.8030 ho         1 62I       0.407000
     37 H9          -0.2100     0.1110     3.8160 h1         1 62I       0.038700
     38 H10         -0.2440     0.9680     2.2690 h1         1 62I       0.038700
     39 H11         -4.5250     1.8160     2.6910 hc         1 62I       0.023367
     40 H12         -4.4620     1.5550     4.4400 hc         1 62I       0.023367
     41 H13         -4.5570     0.1710     3.3430 hc         1 62I       0.023367
     42 H16         -2.3050     2.0310    -1.5280 h1         1 62I       0.040950
     43 H17         -3.2600     1.2630     0.5820 hc         1 62I       0.027950
     44 H18         -4.5120     2.1230    -0.3320 hc         1 62I       0.027950
     45 H19         -3.6210    -1.4600    -2.3290 h1         1 62I       0.040950
     46 H20         -3.2610    -1.2210     0.6810 hc         1 62I       0.027950
     47 H21         -4.5150    -2.1460    -0.1630 hc         1 62I       0.027950
     48 H22         -5.3720    -0.0460    -1.1670 h1         1 62I       0.061700
     49 H23         -6.0970    -2.4720     1.2690 hn         1 62I       0.326800
     50 H24         -7.6830    -2.6370     0.9130 hn         1 62I       0.326800
     51 H25         -3.6210     1.2650    -2.4370 h1         1 62I       0.040950
     52 H26         -2.3050    -2.1520    -1.3620 h1         1 62I       0.040950
     53 HAM3        -6.5770    -2.5070    -0.2880 hn         1 62I       0.326800
@<TRIPOS>BOND
     1     1     4 1   
     2     1    14 1   
     3     1    15 1   
     4     1    29 1   
     5     2     4 1   
     6     2    30 1   
     7     3     7 1   
     8     3     9 1   
     9     3    14 1   
    10     3    31 1   
    11     4     5 1   
    12     4    32 1   
    13     5     6 1   
    14     5     7 1   
    15     5    33 1   
    16     6    34 1   
    17     7     8 1   
    18     7    35 1   
    19     8    36 1   
    20     9    10 1   
    21     9    37 1   
    22     9    38 1   
    23    10    11 1   
    24    11    12 2   
    25    11    13 1   
    26    13    39 1   
    27    13    40 1   
    28    13    41 1   
    29    15    16 2   
    30    15    17 2   
    31    15    18 1   
    32    18    19 1   
    33    18    21 1   
    34    19    20 1   
    35    19    42 1   
    36    19    51 1   
    37    20    23 1   
    38    20    43 1   
    39    20    44 1   
    40    21    22 1   
    41    21    45 1   
    42    21    52 1   
    43    22    23 1   
    44    22    46 1   
    45    22    47 1   
    46    23    24 1   
    47    23    48 1   
    48    24    25 1   
    49    25    26 2   
    50    25    27 2   
    51    25    28 1   
    52    28    49 1   
    53    28    50 1   
    54    28    53 1   
@<TRIPOS>SUBSTRUCTURE
     1 62I         1 TEMP              0 ****  ****    0 ROOT
