@<TRIPOS>MOLECULE
molecule
   53    54     1     0     0
SMALL
bcc


@<TRIPOS>ATOM
      1 C1           0.0000     0.0000     0.0000 c3         1 62I       0.004900
      2 O2           2.0080    -1.1680    -0.6720 oh         1 62I      -0.577800
      3 C5          -0.0760    -1.1670     2.0940 c3         1 62I       0.126100
      4 C2           1.5310     0.0000     0.0000 c3         1 62I       0.114100
      5 C3           2.0340     0.0000     1.4470 c3         1 62I       0.136100
      6 O3           3.4600    -0.0740     1.4560 oh         1 62I      -0.581800
      7 C4           1.4520    -1.2140     2.1770 c3         1 62I       0.123100
      8 O4           1.8560    -1.1860     3.5480 oh         1 62I      -0.598800
      9 C6          -0.5880     0.0890     2.8010 c3         1 62I       0.111400
     10 O6          -2.0390     0.0750     2.8240 os         1 62I      -0.454900
     11 CAW         -2.6490     1.1140     3.4140 c          1 62I       0.617100
     12 OAX         -1.9930     2.0070     3.8940 o          1 62I      -0.520000
     13 CAY         -4.1540     1.1680     3.4760 c3         1 62I      -0.132100
     14 O5          -0.4750    -1.1380     0.7220 os         1 62I      -0.378600
     15 SAG         -0.6050    -0.0710    -1.7090 s6         1 62I       1.342900
     16 OAH         -0.3090     1.1370    -2.3940 o          1 62I      -0.588800
     17 OAJ         -0.3090    -1.3340    -2.2910 o          1 62I      -0.588800
     18 NAB         -2.2550    -0.0650    -1.5640 n3         1 62I      -0.814500
     19 CAC         -3.0000     1.2010    -1.5510 c3         1 62I       0.246300
     20 CAD         -3.8850     1.2390    -0.3020 c3         1 62I      -0.108900
     21 CAA         -3.0010    -1.3260    -1.4510 c3         1 62I       0.246300
     22 CAF         -3.8860    -1.2650    -0.2030 c3         1 62I      -0.108900
     23 CAE         -4.7690    -0.0110    -0.2680 c3         1 62I       0.121100
     24 OAK         -5.6190     0.0380     0.8790 os         1 62I      -0.510500
     25 SAL         -7.0000    -0.5610     0.6520 s6         1 62I       1.496400
     26 OAN         -7.7660    -0.2520     1.8080 o          1 62I      -0.530800
     27 OAO         -7.3890    -0.1840    -0.6620 o          1 62I      -0.530800
     28 NAM         -6.8230    -2.2070     0.6340 nz         1 62I      -0.832500
     29 H1          -0.3590     0.9040     0.4780 h2         1 62I       0.084700
     30 H2           2.7100    -0.9300    -1.2560 ho         1 62I       0.427000
     31 H3          -0.4880    -2.0490     2.5690 h1         1 62I       0.098700
     32 H4           1.8910     0.8880    -0.5060 h1         1 62I       0.062700
     33 H5           1.7100     0.9080     1.9410 h1         1 62I       0.051700
     34 H6           3.8160     0.7470     1.7540 ho         1 62I       0.417000
     35 H7           1.8110    -2.1230     1.7080 h1         1 62I       0.090700
     36 H8           2.1640    -2.0400     3.8030 ho         1 62I       0.421000
     37 H9          -0.2100     0.1110     3.8160 h1         1 62I       0.073200
     38 H10         -0.2440     0.9680     2.2690 h1         1 62I       0.073200
     39 H11         -4.5250     1.8160     2.6910 hc         1 62I       0.065367
     40 H12         -4.4620     1.5550     4.4400 hc         1 62I       0.065367
     41 H13         -4.5570     0.1710     3.3430 hc         1 62I       0.065367
     42 H16         -2.3050     2.0310    -1.5280 h1         1 62I       0.081950
     43 H17         -3.2600     1.2630     0.5820 hc         1 62I       0.064450
     44 H18         -4.5120     2.1230    -0.3320 hc         1 62I       0.064450
     45 H19         -3.6210    -1.4600    -2.3290 h1         1 62I       0.081950
     46 H20         -3.2610    -1.2210     0.6810 hc         1 62I       0.064450
     47 H21         -4.5150    -2.1460    -0.1630 hc         1 62I       0.064450
     48 H22         -5.3720    -0.0460    -1.1670 h1         1 62I       0.094700
     49 H23         -6.0970    -2.4720     1.2690 hn         1 62I       0.497800
     50 H24         -7.6830    -2.6370     0.9130 hn         1 62I       0.497800
     51 H25         -3.6210     1.2650    -2.4370 h1         1 62I       0.081950
     52 H26         -2.3050    -2.1520    -1.3620 h1         1 62I       0.081950
     53 HAM3        -6.5770    -2.5070    -0.2880 hn         1 62I       0.497800
@<TRIPOS>BOND
     1     1     4 1   
     2     1    14 1   
     3     1    15 1   
     4     2     4 1   
     5     3     7 1   
     6     3     9 1   
     7     3    14 1   
     8     4     5 1   
     9     5     6 1   
    10     5     7 1   
    11     7     8 1   
    12     9    10 1   
    13    10    11 1   
    14    11    12 2   
    15    11    13 1   
    16    15    16 2   
    17    15    17 2   
    18    15    18 1   
    19    18    19 1   
    20    18    21 1   
    21    19    20 1   
    22    20    23 1   
    23    21    22 1   
    24    22    23 1   
    25    23    24 1   
    26    24    25 1   
    27    25    26 2   
    28    25    27 2   
    29    25    28 1   
    30     1    29 1   
    31     2    30 1   
    32     3    31 1   
    33     4    32 1   
    34     5    33 1   
    35     6    34 1   
    36     7    35 1   
    37     8    36 1   
    38     9    37 1   
    39     9    38 1   
    40    13    39 1   
    41    13    40 1   
    42    13    41 1   
    43    19    42 1   
    44    20    43 1   
    45    20    44 1   
    46    21    45 1   
    47    22    46 1   
    48    22    47 1   
    49    23    48 1   
    50    28    49 1   
    51    28    50 1   
    52    19    51 1   
    53    21    52 1   
    54    53    28 1   
@<TRIPOS>SUBSTRUCTURE
     1 62I         1 TEMP              0 ****  ****    0 ROOT
