@<TRIPOS>MOLECULE
62K
   50    52     1     0     0
SMALL
bcc


@<TRIPOS>ATOM
      1 N1           0.0000     0.0000     0.0000 n2         1 62K      -0.397400
      2 S1           4.2520    -0.0050     5.1310 sy         1 62K       0.933200
      3 N2           1.2900     0.0000     0.0000 nu         1 62K       0.002300
      4 N3           4.4920     1.5770     5.5600 nz         1 62K      -0.133500
      5 N5          -1.1160    -0.0000    -3.3710 ns         1 62K       0.039900
      6 CAA         -9.4860    -1.3020    -1.0680 c3         1 62K       0.009900
      7 CAB        -10.4690     0.1330     0.7260 c3         1 62K       0.009900
      8 OAD         -5.4640     0.0040     1.1680 o          1 62K      -0.591000
      9 OAF          5.5360    -0.5450     4.8540 o          1 62K      -0.500300
     10 OAG          3.3720    -0.5540     6.1030 o          1 62K      -0.500300
     11 CAH          3.3770    -0.0000     1.2110 ca         1 62K      -0.160000
     12 CAI          1.2940     0.0020     2.4130 ca         1 62K      -0.160000
     13 CAJ          4.0650     0.0000     2.4090 ca         1 62K       0.047000
     14 CAK          1.9880    -0.0090     3.6070 ca         1 62K       0.047000
     15 CAL         -4.7120     0.0010    -2.3410 ca         1 62K      -0.004000
     16 CAM         -3.6450     0.0000    -3.2090 ca         1 62K      -0.124000
     17 CAN         -3.1990     0.0020    -0.4550 ca         1 62K       0.042000
     18 CAO         -7.9890     0.0060     0.4460 c3         1 62K       0.229400
     19 OAS         -6.9070     0.0040    -0.5210 os         1 62K      -0.409900
     20 CAU          1.9880    -0.0000     1.2090 ca         1 62K       0.109600
     21 CAV         -4.5010     0.0020    -0.9570 ca         1 62K      -0.170600
     22 CAW          3.3710    -0.0040     3.6060 ca         1 62K      -0.275500
     23 CAX         -0.0940    -0.0010    -2.4990 c          1 62K       0.510200
     24 CAY         -0.6560     0.0000    -1.1390 cc         1 62K       0.277900
     25 CAZ         -2.3400    -0.0010    -2.7200 ca         1 62K      -0.082400
     26 CBA         -2.1260     0.0010    -1.3330 ca         1 62K      -0.200900
     27 CBB         -9.3310     0.0060    -0.2880 c3         1 62K      -0.065700
     28 HN2          1.7900    -0.0220    -0.8660 hn         1 62K       0.328800
     29 HN3          3.6070     2.0300     5.6700 hn         1 62K       0.311467
     30 HN3A         4.9970     1.6160     6.4230 hn         1 62K       0.311467
     31 HN5         -1.0080    -0.0000    -4.3660 hn         1 62K       0.188500
     32 HAA         -8.8340    -1.2860    -1.9330 hc         1 62K       0.006533
     33 HAAA       -10.5140    -1.4090    -1.3920 hc         1 62K       0.006533
     34 HAAB        -9.2200    -2.1360    -0.4300 hc         1 62K       0.006533
     35 HAB        -10.3590     1.0590     1.2780 hc         1 62K       0.006533
     36 HABA       -10.4350    -0.7030     1.4140 hc         1 62K       0.006533
     37 HABB       -11.4190     0.1340     0.2050 hc         1 62K       0.006533
     38 HAH          3.9210     0.0030     0.2740 ha         1 62K       0.147000
     39 HAI          0.2110    -0.0020     2.4150 ha         1 62K       0.147000
     40 HAJ          5.1480    -0.0000     2.4110 ha         1 62K       0.123500
     41 HAK          1.4480    -0.0080     4.5460 ha         1 62K       0.123500
     42 HAL         -5.7230     0.0010    -2.7310 ha         1 62K       0.127000
     43 HAM         -3.8210    -0.0000    -4.2780 ha         1 62K       0.118000
     44 HAN         -3.0270     0.0020     0.6140 ha         1 62K       0.130000
     45 HAO         -7.9190    -0.8780     1.0690 h1         1 62K       0.014700
     46 HAOA        -7.9170     0.8910     1.0670 h1         1 62K       0.014700
     47 HBB         -9.3650     0.8420    -0.9760 hc         1 62K       0.033700
     48 CAT         -5.6510     0.0040    -0.0330 c          1 62K       0.723700
     49 H33          5.0210     2.0390     4.8470 hn         1 62K       0.311467
     50 OAE          1.0900    -0.0010    -2.7840 o          1 62K      -0.678500
@<TRIPOS>BOND
     1     1     3 1   
     2     1    24 2   
     3     2     4 1   
     4     2     9 2   
     5     2    10 2   
     6     2    22 1   
     7     3    20 1   
     8     3    28 1   
     9     4    29 1   
    10     4    30 1   
    11     4    49 1   
    12     5    23 1   
    13     5    25 1   
    14     5    31 1   
    15     6    27 1   
    16     6    32 1   
    17     6    33 1   
    18     6    34 1   
    19     7    27 1   
    20     7    35 1   
    21     7    36 1   
    22     7    37 1   
    23     8    48 2   
    24    11    13 ar  
    25    11    20 ar  
    26    11    38 1   
    27    12    14 ar  
    28    12    20 ar  
    29    12    39 1   
    30    13    22 ar  
    31    13    40 1   
    32    14    22 ar  
    33    14    41 1   
    34    15    16 ar  
    35    15    21 ar  
    36    15    42 1   
    37    16    25 ar  
    38    16    43 1   
    39    17    21 ar  
    40    17    26 ar  
    41    17    44 1   
    42    18    19 1   
    43    18    27 1   
    44    18    45 1   
    45    18    46 1   
    46    19    48 1   
    47    21    48 1   
    48    23    24 1   
    49    23    50 2   
    50    24    26 1   
    51    25    26 ar  
    52    27    47 1   
@<TRIPOS>SUBSTRUCTURE
     1 62K         1 TEMP              0 ****  ****    0 ROOT
