@<TRIPOS>MOLECULE
molecule
   50    52     1     0     0
SMALL
bcc


@<TRIPOS>ATOM
      1 N1           0.0000     0.0000     0.0000 n2         1 62K      -0.351400
      2 S1           4.2520    -0.0050     5.1310 sy         1 62K       1.226200
      3 N2           1.2900     0.0000     0.0000 nu         1 62K      -0.419700
      4 N3           4.4920     1.5770     5.5600 nz         1 62K      -0.805500
      5 N5          -1.1160    -0.0000    -3.3710 ns         1 62K      -0.437100
      6 CAA         -9.4860    -1.3020    -1.0680 c3         1 62K      -0.087100
      7 CAB        -10.4690     0.1330     0.7260 c3         1 62K      -0.087100
      8 OAD         -5.4640     0.0040     1.1680 o          1 62K      -0.552000
      9 OAF          5.5360    -0.5450     4.8540 o          1 62K      -0.524800
     10 OAG          3.3720    -0.5540     6.1030 o          1 62K      -0.524800
     11 CAH          3.3770    -0.0000     1.2110 ca         1 62K      -0.179000
     12 CAI          1.2940     0.0020     2.4130 ca         1 62K      -0.179000
     13 CAJ          4.0650     0.0000     2.4090 ca         1 62K       0.003500
     14 CAK          1.9880    -0.0090     3.6070 ca         1 62K       0.003500
     15 CAL         -4.7120     0.0010    -2.3410 ca         1 62K      -0.026000
     16 CAM         -3.6450     0.0000    -3.2090 ca         1 62K      -0.167000
     17 CAN         -3.1990     0.0020    -0.4550 ca         1 62K       0.007000
     18 CAO         -7.9890     0.0060     0.4460 c3         1 62K       0.153400
     19 OAS         -6.9070     0.0040    -0.5210 os         1 62K      -0.426900
     20 CAU          1.9880    -0.0000     1.2090 ca         1 62K       0.279600
     21 CAV         -4.5010     0.0020    -0.9570 ca         1 62K      -0.157600
     22 CAW          3.3710    -0.0040     3.6060 ca         1 62K      -0.387500
     23 CAX         -0.0940    -0.0010    -2.4990 c          1 62K       0.607200
     24 CAY         -0.6560     0.0000    -1.1390 cc         1 62K       0.326900
     25 CAZ         -2.3400    -0.0010    -2.7200 ca         1 62K       0.088600
     26 CBA         -2.1260     0.0010    -1.3330 ca         1 62K      -0.198900
     27 CBB         -9.3310     0.0060    -0.2880 c3         1 62K      -0.079700
     28 HN2          1.7900     0.0220    -0.8660 hn         1 62K       0.479800
     29 HN3          3.6100     2.0480     5.6050 hn         1 62K       0.489800
     30 HN3A         5.0730     2.0220     4.8780 hn         1 62K       0.489800
     31 HN5         -1.0080    -0.0000    -4.3660 hn         1 62K       0.357500
     32 HAA        -10.5220    -1.4290    -1.3570 hc         1 62K       0.040367
     33 HAAA        -9.1800    -2.1330    -0.4430 hc         1 62K       0.040367
     34 HAAB        -8.8650    -1.2690    -1.9550 hc         1 62K       0.040367
     35 HAB        -11.4190     0.1340     0.2050 hc         1 62K       0.040367
     36 HABA       -10.4350    -0.7030     1.4140 hc         1 62K       0.040367
     37 HABB       -10.3590     1.0590     1.2780 hc         1 62K       0.040367
     38 HAH          3.9210     0.0030     0.2740 ha         1 62K       0.177500
     39 HAI          0.2110    -0.0020     2.4150 ha         1 62K       0.177500
     40 HAJ          5.1480    -0.0000     2.4110 ha         1 62K       0.157000
     41 HAK          1.4480    -0.0080     4.5460 ha         1 62K       0.157000
     42 HAL         -5.7230     0.0010    -2.7310 ha         1 62K       0.166000
     43 HAM         -3.8210    -0.0000    -4.2780 ha         1 62K       0.150000
     44 HAN         -3.0270     0.0020     0.6140 ha         1 62K       0.167000
     45 HAO         -7.9170     0.8910     1.0670 h1         1 62K       0.053200
     46 HAOA        -7.9190    -0.8780     1.0690 h1         1 62K       0.053200
     47 HBB         -9.3650     0.8420    -0.9760 hc         1 62K       0.061700
     48 CAT         -5.6510     0.0040    -0.0330 c          1 62K       0.653700
     49 H33          4.9330     1.6160     6.4570 hn         1 62K       0.489800
     50 OAE          1.0900    -0.0010    -2.7840 o          1 62K      -0.626500
@<TRIPOS>BOND
     1    24     1 2   
     2     1     3 1   
     3    22     2 1   
     4    10     2 2   
     5     2     9 2   
     6     2     4 1   
     7     3    20 1   
     8     3    28 1   
     9     4    29 1   
    10     4    30 1   
    11     5    25 1   
    12     5    23 1   
    13     5    31 1   
    14     6    27 1   
    15     6    32 1   
    16     6    33 1   
    17     6    34 1   
    18    27     7 1   
    19     7    35 1   
    20     7    36 1   
    21     7    37 1   
    22     8    48 2   
    23    50    23 2   
    24    20    11 ar  
    25    11    13 ar  
    26    11    38 1   
    27    20    12 ar  
    28    12    14 ar  
    29    12    39 1   
    30    13    22 ar  
    31    13    40 1   
    32    14    22 ar  
    33    14    41 1   
    34    16    15 ar  
    35    15    21 ar  
    36    15    42 1   
    37    16    25 ar  
    38    16    43 1   
    39    26    17 ar  
    40    21    17 ar  
    41    17    44 1   
    42    19    18 1   
    43    18    27 1   
    44    18    45 1   
    45    18    46 1   
    46    48    19 1   
    47    21    48 1   
    48    23    24 1   
    49    26    24 1   
    50    25    26 ar  
    51    27    47 1   
    52    49     4 1   
@<TRIPOS>SUBSTRUCTURE
     1 62K         1 TEMP              0 ****  ****    0 ROOT
