@<TRIPOS>MOLECULE
62L
   38    39     1     0     0
SMALL
bcc


@<TRIPOS>ATOM
      1 C01          0.0000     0.0000     0.0000 ca         1 62L       0.029000
      2 C02          1.3830     0.0000     0.0000 ca         1 62L      -0.205000
      3 C03          2.0770     0.0000     1.1960 ca         1 62L      -0.025000
      4 C04          1.3930     0.0010     2.3940 ca         1 62L      -0.165300
      5 C05          0.0030     0.0010     2.3990 ca         1 62L       0.207600
      6 C06         -0.6920     0.0010     1.1950 ca         1 62L      -0.168500
      7 S07         -2.4540     0.0010     1.1950 sy         1 62L       0.862300
      8 N08         -0.6940     0.0030     3.6090 nu         1 62L      -0.230000
      9 C09         -0.1180     0.5640     4.7420 ca         1 62L       0.021600
     10 C10          0.1500     1.9420     4.7870 ca         1 62L      -0.101600
     11 C11          0.1890    -0.2330     5.8370 ca         1 62L      -0.159000
     12 C12          0.7610     0.3280     6.9610 ca         1 62L      -0.115300
     13 C13          1.0310     1.6860     7.0080 ca         1 62L      -0.144000
     14 C14          0.7290     2.4940     5.9340 ca         1 62L      -0.053000
     15 C15         -0.1770     2.8000     3.6360 c          1 62L       0.960200
     16 O16          0.0700     4.1240     3.6900 o          1 62L      -0.861800
     17 O17         -0.6680     2.3140     2.6370 o          1 62L      -0.861800
     18 O18         -2.8060     1.0730     2.0580 o          1 62L      -0.568300
     19 C19          1.0920    -0.5440     8.1460 c3         1 62L       0.073200
     20 C20          2.1500     0.0010     3.6970 c3         1 62L       0.018200
     21 O21         -2.8030     0.0250    -0.1820 o          1 62L      -0.568300
     22 C22         -2.9070    -1.5910     1.9380 c3         1 62L      -0.021300
     23 H1          -0.5410     0.0000    -0.9390 ha         1 62L       0.113000
     24 H2           1.9230    -0.0010    -0.9390 ha         1 62L       0.091000
     25 H3           3.1610    -0.0000     1.1920 ha         1 62L       0.086000
     26 H4          -1.5900    -0.4400     3.6710 hn         1 62L       0.272800
     27 H5          -0.0190    -1.2960     5.8080 ha         1 62L       0.093000
     28 H6           1.4800     2.1160     7.8950 ha         1 62L       0.089000
     29 H7           0.9410     3.5550     5.9770 ha         1 62L       0.132000
     30 H9           0.4010    -0.3330     8.9530 hc         1 62L      -0.005633
     31 H10          2.1030    -0.3380     8.4740 hc         1 62L      -0.005633
     32 H11          1.0080    -1.5860     7.8620 hc         1 62L      -0.005633
     33 H12          3.1930    -0.2190     3.5080 hc         1 62L       0.018700
     34 H13          2.0650     0.9750     4.1640 hc         1 62L       0.018700
     35 H14          1.7350    -0.7520     4.3560 hc         1 62L       0.018700
     36 H15         -2.0270    -2.2200     2.0080 h1         1 62L       0.054367
     37 H16         -3.6520    -2.0790     1.3220 h1         1 62L       0.054367
     38 H17         -3.3110    -1.4250     2.9290 h1         1 62L       0.054367
@<TRIPOS>BOND
     1     1     2 ar  
     2     1     6 ar  
     3     1    23 1   
     4     2     3 ar  
     5     2    24 1   
     6     3     4 ar  
     7     3    25 1   
     8     4     5 ar  
     9     4    20 1   
    10     5     6 ar  
    11     5     8 1   
    12     6     7 1   
    13     7    18 2   
    14     7    21 2   
    15     7    22 1   
    16     8     9 1   
    17     8    26 1   
    18     9    10 ar  
    19     9    11 ar  
    20    10    14 ar  
    21    10    15 1   
    22    11    12 ar  
    23    11    27 1   
    24    12    13 ar  
    25    12    19 1   
    26    13    14 ar  
    27    13    28 1   
    28    14    29 1   
    29    15    16 1   
    30    15    17 1   
    31    19    30 1   
    32    19    31 1   
    33    19    32 1   
    34    20    33 1   
    35    20    34 1   
    36    20    35 1   
    37    22    36 1   
    38    22    37 1   
    39    22    38 1   
@<TRIPOS>SUBSTRUCTURE
     1 62L         1 TEMP              0 ****  ****    0 ROOT
