@<TRIPOS>MOLECULE
molecule
   38    39     1     0     0
SMALL
bcc


@<TRIPOS>ATOM
      1 C01          0.0000     0.0000     0.0000 ca         1 62L      -0.004000
      2 C02          1.3830     0.0000     0.0000 ca         1 62L      -0.213000
      3 C03          2.0770     0.0000     1.1960 ca         1 62L      -0.050000
      4 C04          1.3930     0.0010     2.3940 ca         1 62L      -0.150300
      5 C05          0.0030     0.0010     2.3990 ca         1 62L       0.351600
      6 C06         -0.6920     0.0010     1.1950 ca         1 62L      -0.312500
      7 S07         -2.4540     0.0010     1.1950 sy         1 62L       1.193300
      8 N08         -0.6940     0.0030     3.6090 nu         1 62L      -0.678000
      9 C09         -0.1180     0.5640     4.7420 ca         1 62L       0.163600
     10 C10          0.1500     1.9420     4.7870 ca         1 62L      -0.106600
     11 C11          0.1890    -0.2330     5.8370 ca         1 62L      -0.178000
     12 C12          0.7610     0.3280     6.9610 ca         1 62L      -0.105300
     13 C13          1.0310     1.6860     7.0080 ca         1 62L      -0.165000
     14 C14          0.7290     2.4940     5.9340 ca         1 62L      -0.085000
     15 C15         -0.1770     2.8000     3.6360 c          1 62L       0.876200
     16 O16          0.0700     4.1240     3.6900 o          1 62L      -0.815800
     17 O17         -0.6680     2.3140     2.6370 o          1 62L      -0.815800
     18 O18         -2.8060     1.0730     2.0580 o          1 62L      -0.600800
     19 C19          1.0920    -0.5440     8.1460 c3         1 62L      -0.038800
     20 C20          2.1500     0.0010     3.6970 c3         1 62L      -0.051800
     21 O21         -2.8030     0.0250    -0.1820 o          1 62L      -0.600800
     22 C22         -2.9070    -1.5910     1.9380 c3         1 62L      -0.265300
     23 H1          -0.5410     0.0000    -0.9390 ha         1 62L       0.139000
     24 H2           1.9230    -0.0010    -0.9390 ha         1 62L       0.112000
     25 H3           3.1610    -0.0000     1.1920 ha         1 62L       0.114000
     26 H4          -1.5900    -0.4400     3.6710 hn         1 62L       0.426800
     27 H5          -0.0190    -1.2960     5.8080 ha         1 62L       0.111000
     28 H6           1.4800     2.1160     7.8950 ha         1 62L       0.109000
     29 H7           0.9410     3.5550     5.9770 ha         1 62L       0.161000
     30 H9           0.4010    -0.3330     8.9530 hc         1 62L       0.028700
     31 H10          2.1030    -0.3380     8.4740 hc         1 62L       0.028700
     32 H11          1.0080    -1.5860     7.8620 hc         1 62L       0.028700
     33 H12          3.1930    -0.2190     3.5080 hc         1 62L       0.043700
     34 H13          2.0650     0.9750     4.1640 hc         1 62L       0.043700
     35 H14          1.7350    -0.7520     4.3560 hc         1 62L       0.043700
     36 H15         -2.0270    -2.2200     2.0080 h1         1 62L       0.087700
     37 H16         -3.6520    -2.0790     1.3220 h1         1 62L       0.087700
     38 H17         -3.3110    -1.4250     2.9290 h1         1 62L       0.087700
@<TRIPOS>BOND
     1    22     7 1
     2     1     2 ar
     3     1     6 ar
     4     2     3 ar
     5     7     6 1
     6     7    21 2
     7     7    18 2
     8     6     5 ar
     9     3     4 ar
    10     5     4 ar
    11     5     8 1
    12     4    20 1
    13     8     9 1
    14    11     9 ar
    15    11    12 ar
    16     9    10 ar
    17    17    15 1
    18    19    12 1
    19    12    13 ar
    20    10    15 1
    21    10    14 ar
    22    15    16 1
    23    13    14 ar
    24     1    23 1
    25     2    24 1
    26     3    25 1
    27     8    26 1
    28    11    27 1
    29    13    28 1
    30    14    29 1
    31    19    30 1
    32    19    31 1
    33    19    32 1
    34    20    33 1
    35    20    34 1
    36    20    35 1
    37    22    36 1
    38    22    37 1
    39    22    38 1
@<TRIPOS>SUBSTRUCTURE
     1 62L         1 TEMP              0 ****  ****    0 ROOT
