@<TRIPOS>MOLECULE
molecule
   47    50     1     0     0
SMALL
bcc


@<TRIPOS>ATOM
      1 C2           0.0000     0.0000     0.0000 c3         1 62M       0.126100
      2 C4           1.5510     0.0000     0.0000 c3         1 62M      -0.107400
      3 C5           1.8970     0.0000     1.5040 c3         1 62M       0.093000
      4 C7          -0.3110     0.8810     1.2350 c3         1 62M       0.095000
      5 O9          -0.4290     1.0310     4.0490 o          1 62M      -0.590100
      6 C11          3.0420     0.8620     4.0710 ca         1 62M      -0.010000
      7 C12          4.1350     0.5920     4.8940 ca         1 62M      -0.273900
      8 C15          1.6150    -0.3610     5.6020 ca         1 62M       0.211100
      9 C19          5.5550     0.9310     4.8310 cc         1 62M       0.390900
     10 C21          6.2010     3.1960     4.1160 ca         1 62M      -0.085300
     11 C23          5.1080     5.3250     4.0680 ca         1 62M      -0.122000
     12 C24          6.1500     5.8770     4.7900 ca         1 62M      -0.124000
     13 C27          7.2370     3.7440     4.8500 ca         1 62M      -0.113000
     14 O1          -0.5120     0.5940    -1.1950 oh         1 62M      -0.594800
     15 N6           0.7270     0.5300     2.2210 n          1 62M      -0.498800
     16 C10          1.7840     0.3890     4.4220 ca         1 62M      -0.198600
     17 C13          3.9610    -0.1640     6.0710 ca         1 62M       0.023800
     18 C14          2.6970    -0.6400     6.4100 ca         1 62M      -0.243000
     19 N17          5.1920    -0.2630     6.6610 na         1 62M      -0.052100
     20 N18          6.1320     0.4160     5.8770 nd         1 62M      -0.499100
     21 C20          6.2300     1.7340     3.7500 c3         1 62M      -0.031400
     22 C22          5.1370     3.9860     3.7260 ca         1 62M      -0.124000
     23 C25          7.2110     5.0850     5.1870 ca         1 62M      -0.081300
     24 C26          8.3470     5.6860     5.9740 c3         1 62M      -0.047800
     25 H1          -0.3840    -1.0040     0.1370 h1         1 62M       0.049700
     26 H2           1.9330    -0.8940    -0.4790 hc         1 62M       0.063200
     27 H3           1.9330     0.8930    -0.4790 hc         1 62M       0.063200
     28 H4           2.1030    -1.0110     1.8330 h1         1 62M       0.045700
     29 H5           2.7570     0.6350     1.6830 h1         1 62M       0.045700
     30 H6          -1.2940     0.6470     1.6260 h1         1 62M       0.066200
     31 H7          -0.2420     1.9300     0.9750 h1         1 62M       0.066200
     32 H8           3.1510     1.5380     3.2310 ha         1 62M       0.144000
     33 H9           4.2750     5.9450     3.7590 ha         1 62M       0.132000
     34 H10          6.1280     6.9270     5.0560 ha         1 62M       0.131000
     35 H11          8.0680     3.1240     5.1600 ha         1 62M       0.137000
     36 H12         -1.1130    -0.0020    -1.6100 ho         1 62M       0.406000
     37 H13          2.5600    -1.2170     7.3160 ha         1 62M       0.140000
     38 H14          0.1890    -0.5840     6.8260 ho         1 62M       0.431000
     39 H15          5.3890    -0.7430     7.5170 hn         1 62M       0.334700
     40 H16          5.7080     1.5870     2.8120 hc         1 62M       0.065200
     41 H17          7.2580     1.4080     3.6460 hc         1 62M       0.065200
     42 H18          4.3230     3.5560     3.1560 ha         1 62M       0.126000
     43 H19          9.2150     5.7870     5.3350 hc         1 62M       0.044033
     44 H20          8.5870     5.0410     6.8110 hc         1 62M       0.044033
     45 H21          8.0540     6.6620     6.3430 hc         1 62M       0.044033
     46 C8           0.6230     0.6700     3.5570 c          1 62M       0.706700
     47 O16          0.3850    -0.8260     5.9360 oh         1 62M      -0.491100
@<TRIPOS>BOND
     1    47     8 1   
     2     8    18 ar  
     3     8    16 ar  
     4    18    17 ar  
     5     5    46 2   
     6    14     1 1   
     7    46    16 1   
     8    46    15 1   
     9    16     6 ar  
    10     3    15 1   
    11     3     2 1   
    12    17    19 1   
    13    17     7 ar  
    14    15     4 1   
    15    19    20 1   
    16     1     2 1   
    17     1     4 1   
    18     6     7 ar  
    19     7     9 1   
    20    20     9 2   
    21     9    21 1   
    22    22    11 ar  
    23    22    10 ar  
    24    21    10 1   
    25    11    12 ar  
    26    10    13 ar  
    27    12    23 ar  
    28    13    23 ar  
    29    23    24 1   
    30     1    25 1   
    31     2    26 1   
    32     2    27 1   
    33     3    28 1   
    34     3    29 1   
    35     4    30 1   
    36     4    31 1   
    37     6    32 1   
    38    11    33 1   
    39    12    34 1   
    40    13    35 1   
    41    14    36 1   
    42    18    37 1   
    43    47    38 1   
    44    19    39 1   
    45    21    40 1   
    46    21    41 1   
    47    22    42 1   
    48    24    43 1   
    49    24    44 1   
    50    24    45 1   
@<TRIPOS>SUBSTRUCTURE
     1 62M         1 TEMP              0 ****  ****    0 ROOT
