@<TRIPOS>MOLECULE
62M
   47    50     1     0     0
SMALL
bcc


@<TRIPOS>ATOM
      1 C2           0.0000     0.0000     0.0000 c3         1 62M       0.177100
      2 C4           1.5510     0.0000     0.0000 c3         1 62M      -0.051400
      3 C5           1.8970     0.0000     1.5040 c3         1 62M       0.039000
      4 C7          -0.3110     0.8810     1.2350 c3         1 62M       0.038000
      5 O9          -0.4290     1.0310     4.0490 o          1 62M      -0.636100
      6 C11          3.0420     0.8620     4.0710 ca         1 62M       0.025000
      7 C12          4.1350     0.5920     4.8940 ca         1 62M      -0.287900
      8 C15          1.6150    -0.3610     5.6020 ca         1 62M       0.236100
      9 C19          5.5550     0.9310     4.8310 cc         1 62M       0.413900
     10 C21          6.2010     3.1960     4.1160 ca         1 62M      -0.091300
     11 C23          5.1080     5.3250     4.0680 ca         1 62M      -0.094000
     12 C24          6.1500     5.8770     4.7900 ca         1 62M      -0.101000
     13 C27          7.2370     3.7440     4.8500 ca         1 62M      -0.089000
     14 O1          -0.5120     0.5940    -1.1950 oh         1 62M      -0.572800
     15 N6           0.7270     0.5300     2.2210 n          1 62M      -0.164800
     16 C10          1.7840     0.3890     4.4220 ca         1 62M      -0.218600
     17 C13          3.9610    -0.1640     6.0710 ca         1 62M      -0.136200
     18 C14          2.6970    -0.6400     6.4100 ca         1 62M      -0.222000
     19 N17          5.1920    -0.2630     6.6610 na         1 62M       0.411900
     20 N18          6.1320     0.4160     5.8770 nd         1 62M      -0.633100
     21 C20          6.2300     1.7340     3.7500 c3         1 62M       0.039600
     22 C22          5.1370     3.9860     3.7260 ca         1 62M      -0.104000
     23 C25          7.2110     5.0850     5.1870 ca         1 62M      -0.088300
     24 C26          8.3470     5.6860     5.9740 c3         1 62M       0.064200
     25 H1          -0.3840    -1.0040     0.1370 h1         1 62M       0.012700
     26 H2           1.9330    -0.8940    -0.4790 hc         1 62M       0.031700
     27 H3           1.9330     0.8930    -0.4790 hc         1 62M       0.031700
     28 H4           2.1030    -1.0110     1.8330 h1         1 62M       0.020200
     29 H5           2.7570     0.6350     1.6830 h1         1 62M       0.020200
     30 H6          -1.2940     0.6470     1.6260 h1         1 62M       0.035200
     31 H7          -0.2420     1.9300     0.9750 h1         1 62M       0.035200
     32 H8           3.1510     1.5380     3.2310 ha         1 62M       0.114000
     33 H9           4.2750     5.9450     3.7590 ha         1 62M       0.103000
     34 H10          6.1280     6.9270     5.0560 ha         1 62M       0.106000
     35 H11          8.0680     3.1240     5.1600 ha         1 62M       0.114000
     36 H12         -1.1130    -0.0020    -1.6100 ho         1 62M       0.392000
     37 H13          2.5600    -1.2170     7.3160 ha         1 62M       0.117000
     38 H14          0.1890    -0.5840     6.8260 ho         1 62M       0.411000
     39 H15          5.3890    -0.7430     7.5170 hn         1 62M       0.154700
     40 H16          5.7080     1.5870     2.8120 hc         1 62M       0.027200
     41 H17          7.2580     1.4080     3.6460 hc         1 62M       0.027200
     42 H18          4.3230     3.5560     3.1560 ha         1 62M       0.102000
     43 H19          9.2150     5.7870     5.3350 hc         1 62M       0.007367
     44 H20          8.5870     5.0410     6.8110 hc         1 62M       0.007367
     45 H21          8.0540     6.6620     6.3430 hc         1 62M       0.007367
     46 C8           0.6230     0.6700     3.5570 c          1 62M       0.642700
     47 O16          0.3850    -0.8260     5.9360 oh         1 62M      -0.474100
@<TRIPOS>BOND
     1     1     2 1   
     2     1     4 1   
     3     1    14 1   
     4     1    25 1   
     5     2     3 1   
     6     2    26 1   
     7     2    27 1   
     8     3    15 1   
     9     3    28 1   
    10     3    29 1   
    11     4    15 1   
    12     4    30 1   
    13     4    31 1   
    14     5    46 2   
    15     6     7 ar  
    16     6    16 ar  
    17     6    32 1   
    18     7     9 1   
    19     7    17 ar  
    20     8    16 ar  
    21     8    18 ar  
    22     8    47 1   
    23     9    20 2   
    24     9    21 1   
    25    10    13 ar  
    26    10    21 1   
    27    10    22 ar  
    28    11    12 ar  
    29    11    22 ar  
    30    11    33 1   
    31    12    23 ar  
    32    12    34 1   
    33    13    23 ar  
    34    13    35 1   
    35    14    36 1   
    36    15    46 1   
    37    16    46 1   
    38    17    18 ar  
    39    17    19 1   
    40    18    37 1   
    41    19    20 1   
    42    19    39 1   
    43    21    40 1   
    44    21    41 1   
    45    22    42 1   
    46    23    24 1   
    47    24    43 1   
    48    24    44 1   
    49    24    45 1   
    50    38    47 1   
@<TRIPOS>SUBSTRUCTURE
     1 62M         1 TEMP              0 ****  ****    0 ROOT
