@<TRIPOS>MOLECULE
molecule
   44    45     1     0     0
SMALL
bcc


@<TRIPOS>ATOM
      1 C1           0.0000     0.0000     0.0000 c3         1 62N       0.334500
      2 F1          -5.9820     0.1160    -8.8960 f          1 62N      -0.220633
      3 N1          -0.4890     0.0580    -1.3790 ns         1 62N      -0.578900
      4 C2           1.5310     0.0000     0.0000 c3         1 62N       0.095100
      5 F2          -5.8010    -2.1570    -9.0350 f          1 62N      -0.220633
      6 N2          -2.0660    -0.5440    -2.9920 ns         1 62N      -0.589500
      7 O2           2.0080    -1.1670    -0.6730 oh         1 62N      -0.590800
      8 C3           2.0350     0.0000     1.4460 c3         1 62N       0.112100
      9 F3          -4.0430    -0.8310    -9.6440 f          1 62N      -0.220633
     10 O3           3.4610     0.0740     1.4560 oh         1 62N      -0.607800
     11 C4           1.4540     1.2130     2.1780 c3         1 62N       0.100100
     12 O4           1.8580     1.1830     3.5480 oh         1 62N      -0.598800
     13 C5          -0.0750     1.1660     2.0950 c3         1 62N       0.154100
     14 O5          -0.4750     1.1370     0.7230 os         1 62N      -0.419600
     15 C6          -0.6620     2.4060     2.7720 c3         1 62N       0.153400
     16 O6          -2.0870     2.3060     2.7980 oh         1 62N      -0.592800
     17 C7          -1.6150    -0.5980    -1.7230 c          1 62N       0.781100
     18 O7          -2.2250    -1.2370    -0.8880 o          1 62N      -0.570100
     19 C8          -3.1920    -1.2000    -3.3360 c          1 62N       0.672700
     20 O8          -3.8010    -1.8400    -2.5020 o          1 62N      -0.508100
     21 C9          -3.6850    -1.1410    -4.7280 ca         1 62N      -0.121600
     22 C10         -4.8520    -1.8190    -5.0870 ca         1 62N      -0.091500
     23 C11         -5.3060    -1.7590    -6.3880 ca         1 62N      -0.089000
     24 C12         -4.6110    -1.0310    -7.3360 ca         1 62N      -0.158300
     25 C13         -3.4540    -0.3570    -6.9850 ca         1 62N      -0.089000
     26 C14         -2.9910    -0.4020    -5.6870 ca         1 62N      -0.091500
     27 C15         -5.1130    -0.9710    -8.7550 c3         1 62N       0.673200
     28 H1          -0.3590    -0.9040     0.4770 h2         1 62N       0.100700
     29 HN1          0.0070     0.5940    -2.0640 hn         1 62N       0.307500
     30 H2           1.8910     0.8880    -0.5060 h1         1 62N       0.049700
     31 HN2         -1.5710    -0.0060    -3.6760 hn         1 62N       0.314500
     32 HO2          2.7270    -0.9330    -1.2360 ho         1 62N       0.411000
     33 H3           1.7110    -0.9080     1.9410 h1         1 62N       0.067700
     34 HO3          3.8120    -0.6690     1.9180 ho         1 62N       0.418000
     35 H4           1.8120     2.1220     1.7100 h1         1 62N       0.053700
     36 HO4          2.5480     1.8120     3.6860 ho         1 62N       0.414000
     37 H5          -0.4340     0.2740     2.5920 h1         1 62N       0.071700
     38 H6          -0.3720     3.2910     2.2180 h1         1 62N       0.034700
     39 H6A         -0.2860     2.4760     3.7850 h1         1 62N       0.034700
     40 HO6         -2.4400     2.9840     3.3490 ho         1 62N       0.403000
     41 H10         -5.3980    -2.3900    -4.3460 ha         1 62N       0.149500
     42 H11         -6.2110    -2.2850    -6.6680 ha         1 62N       0.153000
     43 H13         -2.9150     0.2140    -7.7320 ha         1 62N       0.153000
     44 H14         -2.0850     0.1260    -5.4140 ha         1 62N       0.149500
@<TRIPOS>BOND
     1     1     3 1   
     2     1     4 1   
     3     1    14 1   
     4     2    27 1   
     5     3    17 1   
     6     4     7 1   
     7     4     8 1   
     8     5    27 1   
     9     6    17 1   
    10     6    19 1   
    11     8    10 1   
    12     8    11 1   
    13     9    27 1   
    14    11    12 1   
    15    11    13 1   
    16    13    14 1   
    17    13    15 1   
    18    15    16 1   
    19    17    18 2   
    20    19    20 2   
    21    19    21 1   
    22    21    22 ar  
    23    21    26 ar  
    24    22    23 ar  
    25    23    24 ar  
    26    24    25 ar  
    27    24    27 1   
    28    25    26 ar  
    29     1    28 1   
    30     3    29 1   
    31     4    30 1   
    32     6    31 1   
    33     7    32 1   
    34     8    33 1   
    35    10    34 1   
    36    11    35 1   
    37    12    36 1   
    38    13    37 1   
    39    15    38 1   
    40    15    39 1   
    41    16    40 1   
    42    22    41 1   
    43    23    42 1   
    44    25    43 1   
    45    26    44 1   
@<TRIPOS>SUBSTRUCTURE
     1 62N         1 TEMP              0 ****  ****    0 ROOT
