@<TRIPOS>MOLECULE
molecule
   26    28     1     0     0
SMALL
bcc


@<TRIPOS>ATOM
      1 C1           0.0000     0.0000     0.0000 ca         1 62O      -0.048200
      2 C2           1.4060     0.0000     0.0000 ca         1 62O       0.058400
      3 C7           0.7600     0.0060     2.0820 cc         1 62O       0.477400
      4 C8           0.0090     0.0020    -2.3950 ca         1 62O       0.161100
      5 C9           1.4010     0.0010    -2.3940 ca         1 62O      -0.226000
      6 C10          0.8040     0.0110     3.5550 cc         1 62O      -0.099200
      7 C12          1.9380     0.0140     4.3400 cd         1 62O      -0.284300
      8 C14          0.1170     0.0010    -4.7710 c3         1 62O       0.129700
      9 C15          1.5300     0.0190     5.6730 cd         1 62O       0.330200
     10 N3          -0.3860     0.0040     1.3270 na         1 62O      -0.269300
     11 C4          -0.6920     0.0010    -1.2020 ca         1 62O      -0.176000
     12 N5           1.8090     0.0000     1.2940 nd         1 62O      -0.565100
     13 C6           2.0950     0.0020    -1.2180 ca         1 62O      -0.028000
     14 O11         -0.6660     0.0030    -3.5760 os         1 62O      -0.327900
     15 N13         -0.2690     0.0200     4.3990 na         1 62O      -0.050600
     16 N16          0.2210     0.0190     5.7110 nc         1 62O      -0.495800
     17 H1           1.9390     0.0030    -3.3350 ha         1 62O       0.141000
     18 H2           2.9610     0.0130     3.9840 ha         1 62O       0.176000
     19 H3          -0.5400     0.0010    -5.6330 h1         1 62O       0.043033
     20 H4           0.7410    -0.8840    -4.7930 h1         1 62O       0.043033
     21 H5           0.7430     0.8850    -4.7940 h1         1 62O       0.043033
     22 H6           2.1860     0.0200     6.5340 h4         1 62O       0.053100
     23 H7          -1.3160    -0.1320     1.6690 hn         1 62O       0.299700
     24 H8          -1.7750     0.0010    -1.2070 ha         1 62O       0.143000
     25 H10          3.1790     0.0010    -1.2280 ha         1 62O       0.146000
     26 H11         -1.2320     0.0200     4.1290 hn         1 62O       0.324700
@<TRIPOS>BOND
     1    16     9 2
     2    16    15 1
     3     9     7 1
     4    15     6 1
     5     7     6 2
     6     6     3 1
     7     3    10 1
     8     3    12 2
     9    10     1 1
    10    12     2 1
    11     1     2 ar
    12     1    11 ar
    13     2    13 ar
    14    11     4 ar
    15     8    14 1
    16    13     5 ar
    17     4     5 ar
    18     4    14 1
    19     5    17 1
    20     7    18 1
    21     8    19 1
    22     8    20 1
    23     8    21 1
    24     9    22 1
    25    10    23 1
    26    11    24 1
    27    13    25 1
    28    15    26 1
@<TRIPOS>SUBSTRUCTURE
     1 62O         1 TEMP              0 ****  ****    0 ROOT
