@<TRIPOS>MOLECULE
62P
   30    32     1     0     0
SMALL
bcc


@<TRIPOS>ATOM
      1 C2          0.0790    0.4400    0.1370 cc        1 62P     -0.113600
      2 C3          1.4100   -0.0740   -0.1270 cc        1 62P      0.047000
      3 S8          2.0580    0.0960   -1.7000 sy        1 62P      1.412000
      4 O19         1.0960    0.7530   -2.4790 o         1 62P     -0.636800
      5 O18         3.3270    0.6520   -1.6480 o         1 62P     -0.636800
      6 C9          2.1120   -1.5120   -2.1750 cc        1 62P     -0.261000
      7 O13         3.1530   -2.2840   -1.5990 os        1 62P     -0.141200
      8 C12         3.0400   -3.5540   -2.1410 ca        1 62P      0.105100
      9 C17         3.8600   -4.6510   -1.8690 ca        1 62P     -0.125000
     10 C16         3.5590   -5.8320   -2.5340 ca        1 62P     -0.080000
     11 C15         2.4770   -5.9070   -3.4380 ca        1 62P     -0.014600
     12 CL21        2.1680   -7.3880   -4.2160 cl        1 62P     -0.083400
     13 C14         1.6610   -4.8110   -3.7100 ca        1 62P     -0.053000
     14 C11         1.9440   -3.6140   -3.0520 ca        1 62P     -0.147800
     15 C10         1.3620   -2.2830   -3.0520 cd        1 62P      0.079600
     16 C20         0.2010   -1.8810   -3.8490 c3        1 62P     -0.080900
     17 N4          2.1340   -0.6520    0.8380 nd        1 62P     -0.291300
     18 N5          1.6480   -0.7620    2.0350 n         1 62P     -0.260900
     19 C6          0.3480   -0.3030    2.4450 c         1 62P      0.669700
     20 O7          0.0140   -0.4790    3.6240 o         1 62P     -0.587500
     21 C1         -0.4390    0.3310    1.3840 cd        1 62P     -0.227200
     22 H2         -0.4730    0.9140   -0.6950 ha        1 62P      0.181000
     23 H17         4.7000   -4.5740   -1.1660 ha        1 62P      0.164000
     24 H16         4.1760   -6.7270   -2.3540 ha        1 62P      0.156000
     25 H14         0.8230   -4.8790   -4.4190 ha        1 62P      0.158000
     26 H201       -0.7330   -2.3000   -3.3920 hc        1 62P      0.074700
     27 H202        0.1010   -0.7660   -3.9010 hc        1 62P      0.074700
     28 H203        0.2900   -2.2850   -4.8900 hc        1 62P      0.074700
     29 HN5         2.2520   -1.1980    2.7130 hn        1 62P      0.367500
     30 H1         -1.4360    0.6960    1.6690 ha        1 62P      0.176000
@<TRIPOS>BOND
     1    1    2 1   
     2    1   21 2   
     3    1   22 1   
     4    2    3 1   
     5    2   17 2   
     6    3    4 2   
     7    3    5 2   
     8    3    6 1   
     9    6    7 1   
    10    6   15 2   
    11    7    8 1   
    12    8    9 ar  
    13    8   14 ar  
    14    9   10 ar  
    15    9   23 1   
    16   10   11 ar  
    17   10   24 1   
    18   11   12 1   
    19   11   13 ar  
    20   13   14 ar  
    21   13   25 1   
    22   14   15 1   
    23   15   16 1   
    24   16   26 1   
    25   16   27 1   
    26   16   28 1   
    27   17   18 1   
    28   18   19 1   
    29   18   29 1   
    30   19   20 2   
    31   19   21 1   
    32   21   30 1   
@<TRIPOS>SUBSTRUCTURE
     1 62P         1 TEMP              0 ****  ****    0 ROOT
