@<TRIPOS>MOLECULE
molecule
   88    92     1     0     0
SMALL
bcc


@<TRIPOS>ATOM
      1 F1           0.0000     0.0000     0.0000 f          1 62Q      -0.224300
      2 F2           1.8660     0.0000     1.3190 f          1 62Q      -0.224300
      3 F3           1.8660    -1.1430    -0.6580 f          1 62Q      -0.224300
      4 F4           3.0930    12.4360     0.1420 f          1 62Q      -0.207967
      5 F5           3.4140    10.5920    -1.1690 f          1 62Q      -0.207967
      6 F6           3.4450    10.3950     1.1080 f          1 62Q      -0.207967
      7 C1           1.1290     5.5840    -3.1590 c3         1 62Q      -0.129400
      8 C2           0.3100     6.8710    -3.0390 c3         1 62Q      -0.099400
      9 C3           0.1060     7.2050    -1.5580 c3         1 62Q       0.069000
     10 N1           1.4190     7.2620    -0.9010 n          1 62Q      -0.466800
     11 C4           2.3240     6.1120    -1.0310 c3         1 62Q       0.096700
     12 C5           2.5030     5.7900    -2.5170 c3         1 62Q       0.063800
     13 C6           3.2090     6.9330    -3.1980 c          1 62Q       0.685100
     14 N2           3.8360     6.7330    -4.3740 n          1 62Q      -0.478800
     15 O1           3.2150     8.0330    -2.6870 o          1 62Q      -0.587100
     16 C7           2.8240     3.4880    -2.0160 ca         1 62Q       0.169100
     17 C8           3.5730     2.3200    -2.0340 ca         1 62Q      -0.208500
     18 C9           3.1100     1.1940    -1.3820 ca         1 62Q      -0.043000
     19 C10          1.9020     1.2300    -0.7110 ca         1 62Q      -0.219300
     20 C11          1.1530     2.3930    -0.6920 ca         1 62Q      -0.043000
     21 C12          1.6150     3.5230    -1.3370 ca         1 62Q      -0.208500
     22 O3           2.8730     8.3810     0.3510 o          1 62Q      -0.574100
     23 C14          0.8690     9.5030    -0.0810 ca         1 62Q      -0.216900
     24 C15         -0.5120     9.3120    -0.0730 ca         1 62Q       0.415200
     25 N3          -1.3300    10.3390     0.0320 nb         1 62Q      -0.679000
     26 C16         -0.8840    11.5770     0.1340 ca         1 62Q       0.431200
     27 C17          0.4720    11.8500     0.1330 ca         1 62Q      -0.219300
     28 C18          1.3730    10.8050     0.0250 ca         1 62Q      -0.090300
     29 C19          4.6290     7.8030    -4.9990 c3         1 62Q       0.103500
     30 C20          4.1690     7.9650    -6.4520 c3         1 62Q       0.151300
     31 N4           4.2380     6.6640    -7.1320 nh         1 62Q      -0.597000
     32 C21          3.3190     5.6940    -6.5190 c3         1 62Q       0.151300
     33 C22          3.7490     5.4380    -5.0660 c3         1 62Q       0.103500
     34 C23          3.9840     6.8000    -8.5010 ca         1 62Q       0.046600
     35 C24          2.7730     7.3190    -8.9350 ca         1 62Q      -0.126000
     36 C25          2.5250     7.4530   -10.2890 ca         1 62Q      -0.163000
     37 C26          3.4800     7.0690   -11.2110 ca         1 62Q      -0.088000
     38 C27          4.6890     6.5490   -10.7860 ca         1 62Q      -0.224000
     39 C28          4.9480     6.4180    -9.4310 ca         1 62Q       0.170100
     40 O4           6.1380     5.9110    -9.0110 os         1 62Q      -0.293900
     41 C32          7.0790     5.5410   -10.0220 c3         1 62Q       0.135400
     42 C33          8.3470     4.9970    -9.3620 c3         1 62Q       0.144400
     43 O5           8.0420     3.7860    -8.6670 oh         1 62Q      -0.598800
     44 C35          1.3990     0.0000     0.0000 c3         1 62Q       0.677200
     45 C36          2.8580    11.0610     0.0260 c3         1 62Q       0.675200
     46 C37          3.6810     6.4550    -0.4130 c3         1 62Q      -0.086400
     47 C38          4.6180     5.2520    -0.5390 c3         1 62Q      -0.109400
     48 C39          5.9240     5.5420     0.2020 c3         1 62Q      -0.084100
     49 H1           0.6110     4.7800    -2.6500 hc         1 62Q       0.068700
     50 H2           1.2550     5.3340    -4.2060 hc         1 62Q       0.068700
     51 H3          -0.6540     6.7310    -3.5130 hc         1 62Q       0.063700
     52 H4           0.8410     7.6830    -3.5210 hc         1 62Q       0.063700
     53 H5          -0.3870     8.1660    -1.4680 h1         1 62Q       0.063700
     54 H6          -0.4990     6.4360    -1.0930 h1         1 62Q       0.063700
     55 H7           1.8950     5.2560    -0.5240 h1         1 62Q       0.079700
     56 H8           4.5200     2.2910    -2.5600 ha         1 62Q       0.162500
     57 H9           3.6940     0.2820    -1.3960 ha         1 62Q       0.150500
     58 H10          0.2080     2.4190    -0.1640 ha         1 62Q       0.150500
     59 H11          1.0280     4.4340    -1.3220 ha         1 62Q       0.162500
     60 H12         -0.9160     8.3100    -0.1540 h4         1 62Q       0.046100
     61 H13         -1.5910    12.3930     0.2180 h4         1 62Q       0.033100
     62 H14          0.8250    12.8710     0.2160 ha         1 62Q       0.163000
     63 H15          5.6790     7.5360    -4.9780 h1         1 62Q       0.071450
     64 H16          4.4730     8.7310    -4.4630 h1         1 62Q       0.071450
     65 H17          4.8170     8.6710    -6.9580 h1         1 62Q       0.044200
     66 H18          3.1480     8.3270    -6.4680 h1         1 62Q       0.044200
     67 H19          3.3530     4.7650    -7.0740 h1         1 62Q       0.044200
     68 H20          2.3120     6.0930    -6.5320 h1         1 62Q       0.044200
     69 H21          4.7170     4.9530    -5.0540 h1         1 62Q       0.071450
     70 H22          3.0140     4.8120    -4.5750 h1         1 62Q       0.071450
     71 H23          2.0230     7.6210    -8.2140 ha         1 62Q       0.135000
     72 H24          1.5790     7.8590   -10.6280 ha         1 62Q       0.131000
     73 H25          3.2800     7.1740   -12.2710 ha         1 62Q       0.131000
     74 H26          5.4360     6.2510   -11.5110 ha         1 62Q       0.137000
     75 H27          7.3260     6.4090   -10.6200 h1         1 62Q       0.043200
     76 H28          6.6450     4.7770   -10.6560 h1         1 62Q       0.043200
     77 H29          9.0930     4.7990   -10.1230 h1         1 62Q       0.033700
     78 H30          8.7320     5.7280    -8.6620 h1         1 62Q       0.033700
     79 H31          8.8390     3.4000    -8.3440 ho         1 62Q       0.403000
     80 H32          3.5500     6.7020     0.6330 hc         1 62Q       0.092700
     81 H33          4.1100     7.3030    -0.9330 hc         1 62Q       0.092700
     82 H34          4.8300     5.0670    -1.5850 hc         1 62Q       0.043700
     83 H35          4.1440     4.3780    -0.1070 hc         1 62Q       0.043700
     84 H36          5.7220     5.6480     1.2610 hc         1 62Q       0.032700
     85 H37          6.3570     6.4600    -0.1760 hc         1 62Q       0.032700
     86 H38          6.6170     4.7250     0.0470 hc         1 62Q       0.032700
     87 O2           3.2770     4.5980    -2.6570 os         1 62Q      -0.307900
     88 C13          1.7870     8.3490    -0.1940 c          1 62Q       0.688700
@<TRIPOS>BOND
     1    25    26 ar  
     2    25    24 ar  
     3    26    27 ar  
     4    48    47 1   
     5    24    23 ar  
     6    47    46 1   
     7    27    28 ar  
     8    23    28 ar  
     9    23    88 1   
    10    28    45 1   
    11    88    22 2   
    12    88    10 1   
    13    46    11 1   
    14    10     9 1   
    15    10    11 1   
    16     9     8 1   
    17    11    12 1   
    18    45     4 1   
    19    45     6 1   
    20    45     5 1   
    21     8     7 1   
    22    12     7 1   
    23    12    13 1   
    24    12    87 1   
    25    33    14 1   
    26    33    32 1   
    27    13    14 1   
    28    13    15 2   
    29    43    42 1   
    30    14    29 1   
    31    87    16 1   
    32    29    30 1   
    33    32    31 1   
    34    42    41 1   
    35    16    17 ar  
    36    16    21 ar  
    37    17    18 ar  
    38    31    30 1   
    39    31    34 1   
    40    41    40 1   
    41    21    20 ar  
    42    18    19 ar  
    43    40    39 1   
    44    34    39 ar  
    45    34    35 ar  
    46    20    19 ar  
    47    39    38 ar  
    48    35    36 ar  
    49    19    44 1   
    50    38    37 ar  
    51    36    37 ar  
    52    44     2 1   
    53    44     1 1   
    54    44     3 1   
    55     7    49 1   
    56     7    50 1   
    57     8    51 1   
    58     8    52 1   
    59     9    53 1   
    60     9    54 1   
    61    11    55 1   
    62    17    56 1   
    63    18    57 1   
    64    20    58 1   
    65    21    59 1   
    66    24    60 1   
    67    26    61 1   
    68    27    62 1   
    69    29    63 1   
    70    29    64 1   
    71    30    65 1   
    72    30    66 1   
    73    32    67 1   
    74    32    68 1   
    75    33    69 1   
    76    33    70 1   
    77    35    71 1   
    78    36    72 1   
    79    37    73 1   
    80    38    74 1   
    81    41    75 1   
    82    41    76 1   
    83    42    77 1   
    84    42    78 1   
    85    43    79 1   
    86    46    80 1   
    87    46    81 1   
    88    47    82 1   
    89    47    83 1   
    90    48    84 1   
    91    48    85 1   
    92    48    86 1   
@<TRIPOS>SUBSTRUCTURE
     1 62Q         1 TEMP              0 ****  ****    0 ROOT
