@<TRIPOS>MOLECULE
62Q
   88    92     1     0     0
SMALL
bcc


@<TRIPOS>ATOM
      1 F1           0.0000     0.0000     0.0000 f          1 62Q      -0.208300
      2 F2           1.8660     0.0000     1.3190 f          1 62Q      -0.208300
      3 F3           1.8660    -1.1430    -0.6580 f          1 62Q      -0.208300
      4 F4           3.0930    12.4360     0.1420 f          1 62Q      -0.200300
      5 F5           3.4140    10.5920    -1.1690 f          1 62Q      -0.200300
      6 F6           3.4450    10.3950     1.1080 f          1 62Q      -0.200300
      7 C1           1.1290     5.5840    -3.1590 c3         1 62Q      -0.105400
      8 C2           0.3100     6.8710    -3.0390 c3         1 62Q      -0.038400
      9 C3           0.1060     7.2050    -1.5580 c3         1 62Q      -0.017000
     10 N1           1.4190     7.2620    -0.9010 n          1 62Q      -0.105800
     11 C4           2.3240     6.1120    -1.0310 c3         1 62Q      -0.012300
     12 C5           2.5030     5.7900    -2.5170 c3         1 62Q       0.073800
     13 C6           3.2090     6.9330    -3.1980 c          1 62Q       0.599100
     14 N2           3.8360     6.7330    -4.3740 n          1 62Q      -0.130800
     15 O1           3.2150     8.0330    -2.6870 o          1 62Q      -0.632100
     16 C7           2.8240     3.4880    -2.0160 ca         1 62Q       0.191100
     17 C8           3.5730     2.3200    -2.0340 ca         1 62Q      -0.211500
     18 C9           3.1100     1.1940    -1.3820 ca         1 62Q       0.007000
     19 C10          1.9020     1.2300    -0.7110 ca         1 62Q      -0.254300
     20 C11          1.1530     2.3930    -0.6920 ca         1 62Q       0.007000
     21 C12          1.6150     3.5230    -1.3370 ca         1 62Q      -0.211500
     22 O3           2.8730     8.3810     0.3510 o          1 62Q      -0.615100
     23 C14          0.8690     9.5030    -0.0810 ca         1 62Q      -0.200900
     24 C15         -0.5120     9.3120    -0.0730 ca         1 62Q       0.374200
     25 N3          -1.3300    10.3390     0.0320 nb         1 62Q      -0.561000
     26 C16         -0.8840    11.5770     0.1340 ca         1 62Q       0.412200
     27 C17          0.4720    11.8500     0.1330 ca         1 62Q      -0.174300
     28 C18          1.3730    10.8050     0.0250 ca         1 62Q      -0.115300
     29 C19          4.6290     7.8030    -4.9990 c3         1 62Q       0.030500
     30 C20          4.1690     7.9650    -6.4520 c3         1 62Q       0.131300
     31 N4           4.2380     6.6640    -7.1320 nh         1 62Q      -0.376000
     32 C21          3.3190     5.6940    -6.5190 c3         1 62Q       0.131300
     33 C22          3.7490     5.4380    -5.0660 c3         1 62Q       0.030500
     34 C23          3.9840     6.8000    -8.5010 ca         1 62Q      -0.040400
     35 C24          2.7730     7.3190    -8.9350 ca         1 62Q      -0.095000
     36 C25          2.5250     7.4530   -10.2890 ca         1 62Q      -0.139000
     37 C26          3.4800     7.0690   -11.2110 ca         1 62Q      -0.051000
     38 C27          4.6890     6.5490   -10.7860 ca         1 62Q      -0.214000
     39 C28          4.9480     6.4180    -9.4310 ca         1 62Q       0.181100
     40 O4           6.1380     5.9110    -9.0110 os         1 62Q      -0.271900
     41 C32          7.0790     5.5410   -10.0220 c3         1 62Q       0.188400
     42 C33          8.3470     4.9970    -9.3620 c3         1 62Q       0.223400
     43 O5           8.0420     3.7860    -8.6670 oh         1 62Q      -0.582800
     44 C35          1.3990     0.0000     0.0000 c3         1 62Q       0.645200
     45 C36          2.8580    11.0610     0.0260 c3         1 62Q       0.652200
     46 C37          3.6810     6.4550    -0.4130 c3         1 62Q      -0.079400
     47 C38          4.6180     5.2520    -0.5390 c3         1 62Q      -0.072400
     48 C39          5.9240     5.5420     0.2020 c3         1 62Q       0.013900
     49 H1           0.6110     4.7800    -2.6500 hc         1 62Q       0.050200
     50 H2           1.2550     5.3340    -4.2060 hc         1 62Q       0.050200
     51 H3          -0.6540     6.7310    -3.5130 hc         1 62Q       0.034700
     52 H4           0.8410     7.6830    -3.5210 hc         1 62Q       0.034700
     53 H5          -0.3870     8.1660    -1.4680 h1         1 62Q       0.048200
     54 H6          -0.4990     6.4360    -1.0930 h1         1 62Q       0.048200
     55 H7           1.8950     5.2560    -0.5240 h1         1 62Q       0.068700
     56 H8           4.5200     2.2910    -2.5600 ha         1 62Q       0.149000
     57 H9           3.6940     0.2820    -1.3960 ha         1 62Q       0.118000
     58 H10          0.2080     2.4190    -0.1640 ha         1 62Q       0.118000
     59 H11          1.0280     4.4340    -1.3220 ha         1 62Q       0.149000
     60 H12         -0.9160     8.3100    -0.1540 h4         1 62Q       0.013100
     61 H13         -1.5910    12.3930     0.2180 h4         1 62Q      -0.012900
     62 H14          0.8250    12.8710     0.2160 ha         1 62Q       0.134000
     63 H15          5.6790     7.5360    -4.9780 h1         1 62Q       0.046700
     64 H16          4.4730     8.7310    -4.4630 h1         1 62Q       0.046700
     65 H17          4.8170     8.6710    -6.9580 h1         1 62Q       0.018950
     66 H18          3.1480     8.3270    -6.4680 h1         1 62Q       0.018950
     67 H19          3.3530     4.7650    -7.0740 h1         1 62Q       0.018950
     68 H20          2.3120     6.0930    -6.5320 h1         1 62Q       0.018950
     69 H21          4.7170     4.9530    -5.0540 h1         1 62Q       0.046700
     70 H22          3.0140     4.8120    -4.5750 h1         1 62Q       0.046700
     71 H23          2.0230     7.6210    -8.2140 ha         1 62Q       0.109000
     72 H24          1.5790     7.8590   -10.6280 ha         1 62Q       0.106000
     73 H25          3.2800     7.1740   -12.2710 ha         1 62Q       0.101000
     74 H26          5.4360     6.2510   -11.5110 ha         1 62Q       0.122000
     75 H27          7.3260     6.4090   -10.6200 h1         1 62Q       0.007700
     76 H28          6.6450     4.7770   -10.6560 h1         1 62Q       0.007700
     77 H29          9.0930     4.7990   -10.1230 h1         1 62Q      -0.006300
     78 H30          8.7320     5.7280    -8.6620 h1         1 62Q      -0.006300
     79 H31          8.8390     3.4000    -8.3440 ho         1 62Q       0.389000
     80 H32          3.5500     6.7020     0.6330 hc         1 62Q       0.079700
     81 H33          4.1100     7.3030    -0.9330 hc         1 62Q       0.079700
     82 H34          4.8300     5.0670    -1.5850 hc         1 62Q       0.022200
     83 H35          4.1440     4.3780    -0.1070 hc         1 62Q       0.022200
     84 H36          5.7220     5.6480     1.2610 hc         1 62Q       0.000700
     85 H37          6.3570     6.4600    -0.1760 hc         1 62Q       0.000700
     86 H38          6.6170     4.7250     0.0470 hc         1 62Q       0.000700
     87 O2           3.2770     4.5980    -2.6570 os         1 62Q      -0.279900
     88 C13          1.7870     8.3490    -0.1940 c          1 62Q       0.618700
@<TRIPOS>BOND
     1     1    44 1   
     2     2    44 1   
     3     3    44 1   
     4     4    45 1   
     5     5    45 1   
     6     6    45 1   
     7     7     8 1   
     8     7    12 1   
     9     7    49 1   
    10     7    50 1   
    11     8     9 1   
    12     8    51 1   
    13     8    52 1   
    14     9    10 1   
    15     9    53 1   
    16     9    54 1   
    17    10    11 1   
    18    10    88 1   
    19    11    12 1   
    20    11    46 1   
    21    11    55 1   
    22    12    13 1   
    23    12    87 1   
    24    13    14 1   
    25    13    15 2   
    26    14    29 1   
    27    14    33 1   
    28    16    17 ar  
    29    16    21 ar  
    30    16    87 1   
    31    17    18 ar  
    32    17    56 1   
    33    18    19 ar  
    34    18    57 1   
    35    19    20 ar  
    36    19    44 1   
    37    20    21 ar  
    38    20    58 1   
    39    21    59 1   
    40    22    88 2   
    41    23    24 ar  
    42    23    28 ar  
    43    23    88 1   
    44    24    25 ar  
    45    24    60 1   
    46    25    26 ar  
    47    26    27 ar  
    48    26    61 1   
    49    27    28 ar  
    50    27    62 1   
    51    28    45 1   
    52    29    30 1   
    53    29    63 1   
    54    29    64 1   
    55    30    31 1   
    56    30    65 1   
    57    30    66 1   
    58    31    32 1   
    59    31    34 1   
    60    32    33 1   
    61    32    67 1   
    62    32    68 1   
    63    33    69 1   
    64    33    70 1   
    65    34    35 ar  
    66    34    39 ar  
    67    35    36 ar  
    68    35    71 1   
    69    36    37 ar  
    70    36    72 1   
    71    37    38 ar  
    72    37    73 1   
    73    38    39 ar  
    74    38    74 1   
    75    39    40 1   
    76    40    41 1   
    77    41    42 1   
    78    41    75 1   
    79    41    76 1   
    80    42    43 1   
    81    42    77 1   
    82    42    78 1   
    83    43    79 1   
    84    46    47 1   
    85    46    80 1   
    86    46    81 1   
    87    47    48 1   
    88    47    82 1   
    89    47    83 1   
    90    48    84 1   
    91    48    85 1   
    92    48    86 1   
@<TRIPOS>SUBSTRUCTURE
     1 62Q         1 TEMP              0 ****  ****    0 ROOT
