@<TRIPOS>MOLECULE
molecule
   89    93     1     0     0
SMALL
bcc


@<TRIPOS>ATOM
      1 C1           0.0000     0.0000     0.0000 ca         1 62R       0.189100
      2 C2           1.3850     0.0000     0.0000 ca         1 62R      -0.224000
      3 C3           2.0760     0.0000     1.1970 ca         1 62R      -0.090000
      4 C4           1.3890    -0.0010     2.3960 ca         1 62R      -0.181000
      5 C5           0.0080    -0.0010     2.4050 ca         1 62R      -0.130000
      6 C6           0.0950     0.0120    -2.3770 c3         1 62R       0.116400
      7 C10         -2.6170    -1.2370     1.8110 c3         1 62R       0.152300
      8 C11         -4.1390    -1.2810     1.6360 c3         1 62R       0.098000
      9 C12         -5.7220    -0.0710     3.0660 c          1 62R       0.682100
     10 C13         -6.2340     1.2090     3.6740 c3         1 62R       0.065800
     11 C15         -6.4100     0.3740     6.4920 c3         1 62R       0.067000
     12 C22         -7.7500    -4.2840     7.5020 ca         1 62R      -0.219300
     13 F5          -9.0250     6.8930     1.4700 f          1 62R      -0.215967
     14 F3          -6.8290     6.9730     0.8470 f          1 62R      -0.215967
     15 F4          -7.5040     7.9760     2.7860 f          1 62R      -0.215967
     16 C30         -7.4450     5.6060     2.6870 cc         1 62R      -0.129400
     17 S           -7.6950     5.3770     4.4120 ss         1 62R      -0.080800
     18 C29         -7.1530     3.7080     4.3020 cd         1 62R      -0.188100
     19 C31         -6.9950     4.4730     2.1450 cc         1 62R      -0.093000
     20 C28         -6.8290     3.4250     3.0370 cc         1 62R       0.111100
     21 O5          -6.3780     2.1970     2.6520 os         1 62R      -0.291900
     22 C17         -5.2440     1.7070     4.7290 c3         1 62R      -0.126400
     23 C16         -5.0640     0.6360     5.8070 c3         1 62R      -0.098400
     24 N2          -7.4050     0.0360     5.4650 n          1 62R      -0.465800
     25 C19         -7.8700    -2.0530     6.6540 ca         1 62R      -0.211900
     26 C23         -8.0070    -3.4300     6.4430 ca         1 62R      -0.090300
     27 C24         -8.4220    -3.9700     5.0990 c3         1 62R       0.673200
     28 F2          -7.4890    -3.5820     4.1320 f          1 62R      -0.205967
     29 F1          -8.4840    -5.3660     5.1550 f          1 62R      -0.205967
     30 F           -9.6820    -3.4610     4.7620 f          1 62R      -0.205967
     31 C21         -7.3750    -3.7540     8.7240 ca         1 62R       0.427200
     32 N3          -7.2590    -2.4520     8.8940 nb         1 62R      -0.683000
     33 C20         -7.4930    -1.5990     7.9180 ca         1 62R       0.414200
     34 C14         -7.5930     0.9550     4.3340 c3         1 62R       0.104700
     35 C25         -8.5480     0.3270     3.3160 c3         1 62R      -0.089400
     36 O3          -6.2220    -1.1320     3.3760 o          1 62R      -0.595100
     37 N1          -4.7070    -0.0380     2.1800 n          1 62R      -0.471800
     38 C33         -4.1380     1.2420     1.7310 c3         1 62R       0.098000
     39 C34         -2.6180     1.1860     1.9030 c3         1 62R       0.152300
     40 N           -2.0920    -0.0010     1.2140 nh         1 62R      -0.586000
     41 C           -0.6930    -0.0000     1.2080 ca         1 62R       0.029600
     42 O           -0.6820     0.0060    -1.1770 os         1 62R      -0.299900
     43 C7          -0.8390     0.0190    -3.5890 c3         1 62R      -0.061400
     44 C8          -0.0070     0.0260    -4.8740 c3         1 62R      -0.182400
     45 O1          -0.4160     0.0380    -7.3080 o          1 62R      -0.849800
     46 O2          -2.1240     0.0310    -5.9080 o          1 62R      -0.849800
     47 H1           1.9270     0.0000    -0.9380 ha         1 62R       0.149000
     48 H2           3.1600     0.0000     1.1950 ha         1 62R       0.123000
     49 H3           1.9350    -0.0010     3.3320 ha         1 62R       0.119000
     50 H4          -0.5280    -0.0010     3.3470 ha         1 62R       0.124000
     51 H5           0.7200     0.8970    -2.3980 h1         1 62R       0.024700
     52 H6           0.7200    -0.8720    -2.4070 h1         1 62R       0.024700
     53 H7          -2.3750    -1.2580     2.8660 h1         1 62R       0.040950
     54 H8          -2.1730    -2.0920     1.3160 h1         1 62R       0.040950
     55 H9          -4.5420    -2.1300     2.1740 h1         1 62R       0.074450
     56 H10         -4.3810    -1.3600     0.5830 h1         1 62R       0.074450
     57 H11         -6.3090    -0.4520     7.1850 h1         1 62R       0.060200
     58 H12         -6.7250     1.2640     7.0230 h1         1 62R       0.060200
     59 H13         -7.8440    -5.3560     7.3750 ha         1 62R       0.161000
     60 H14         -7.7780     1.3620     1.5960 hc         1 62R       0.043700
     61 H15         -9.0250     2.2500     2.4820 hc         1 62R       0.043700
     62 H16         -7.0900     3.0160     5.1330 h4         1 62R       0.199000
     63 H17         -6.7710     4.3810     1.0890 ha         1 62R       0.181000
     64 H18         -4.2890     1.9080     4.2600 hc         1 62R       0.067700
     65 H19         -5.6270     2.6130     5.1830 hc         1 62R       0.067700
     66 H20         -4.3470     0.9810     6.5420 hc         1 62R       0.062700
     67 H21         -4.7090    -0.2800     5.3500 hc         1 62R       0.062700
     68 H22         -7.1730    -4.4200     9.5540 h4         1 62R       0.030100
     69 H23         -7.3860    -0.5360     8.0980 h4         1 62R       0.046100
     70 H24         -8.0020     1.8910     4.6930 h1         1 62R       0.067700
     71 H25         -9.5110     0.1550     3.7820 hc         1 62R       0.093200
     72 H26         -8.1400    -0.6160     2.9710 hc         1 62R       0.093200
     73 H27         -9.5150    -0.2890     0.8850 hc         1 62R       0.033033
     74 H28         -9.8600     1.3450     0.3020 hc         1 62R       0.033033
     75 H29        -10.7400     0.6980     1.6940 hc         1 62R       0.033033
     76 H30         -4.5420     2.0500     2.3300 h1         1 62R       0.074450
     77 H31         -4.3800     1.4010     0.6870 h1         1 62R       0.074450
     78 H32         -2.1740     2.0770     1.4740 h1         1 62R       0.040950
     79 H33         -2.3760     1.1270     2.9570 h1         1 62R       0.040950
     80 H34         -1.4630     0.9040    -3.5580 hc         1 62R       0.062200
     81 H35         -1.4640    -0.8650    -3.5680 hc         1 62R       0.062200
     82 H36          0.6180    -0.8590    -4.9040 hc         1 62R       0.027700
     83 H37          0.6180     0.9100    -4.8950 hc         1 62R       0.027700
     84 C18         -8.1300    -1.0950     5.5580 c          1 62R       0.687700
     85 C26         -8.7180     1.2740     2.1260 c3         1 62R      -0.104400
     86 O4          -9.0000    -1.3300     4.7420 o          1 62R      -0.571100
     87 C27         -9.7860     0.7170     1.1820 c3         1 62R      -0.085100
     88 C32         -7.7060     6.8850     1.9340 c3         1 62R       0.708200
     89 C9          -0.9260     0.0320    -6.0670 c          1 62R       0.892600
@<TRIPOS>BOND
     1    32    31 ar
     2    32    33 ar
     3    31    12 ar
     4    33    25 ar
     5    12    26 ar
     6    87    85 1
     7    85    35 1
     8    25    26 ar
     9    25    84 1
    10    26    27 1
    11    84    86 2
    12    84    24 1
    13    35    34 1
    14    24    11 1
    15    24    34 1
    16    27    29 1
    17    27    30 1
    18    27    28 1
    19    11    23 1
    20    34    10 1
    21    23    22 1
    22    10    22 1
    23    10    21 1
    24    10     9 1
    25    38    37 1
    26    38    39 1
    27    21    20 1
    28     9    37 1
    29     9    36 2
    30    37     8 1
    31    39    40 1
    32     8     7 1
    33    20    19 1
    34    20    18 2
    35    19    16 2
    36    40     7 1
    37    40    41 1
    38    44    43 1
    39    44    89 1
    40    43     6 1
    41    18    17 1
    42    42     6 1
    43    42     1 1
    44    41     1 ar
    45    41     5 ar
    46    16    88 1
    47    16    17 1
    48    14    88 1
    49    89    46 1
    50    89    45 1
    51     1     2 ar
    52     5     4 ar
    53    88    13 1
    54    88    15 1
    55     2     3 ar
    56     4     3 ar
    57     2    47 1
    58     3    48 1
    59     4    49 1
    60     5    50 1
    61     6    51 1
    62     6    52 1
    63     7    53 1
    64     7    54 1
    65     8    55 1
    66     8    56 1
    67    11    57 1
    68    11    58 1
    69    12    59 1
    70    85    60 1
    71    85    61 1
    72    18    62 1
    73    19    63 1
    74    22    64 1
    75    22    65 1
    76    23    66 1
    77    23    67 1
    78    31    68 1
    79    33    69 1
    80    34    70 1
    81    35    71 1
    82    35    72 1
    83    87    73 1
    84    87    74 1
    85    87    75 1
    86    38    76 1
    87    38    77 1
    88    39    78 1
    89    39    79 1
    90    43    80 1
    91    43    81 1
    92    44    82 1
    93    44    83 1
@<TRIPOS>SUBSTRUCTURE
     1 62R         1 TEMP              0 ****  ****    0 ROOT
