@<TRIPOS>MOLECULE
62T
   85    89     1     0     0
SMALL
bcc


@<TRIPOS>ATOM
      1 C1           0.0000     0.0000     0.0000 c3         1 62T       0.071800
      2 C2          -0.5040     1.2900     0.5940 c          1 62T       0.597100
      3 C3          -2.7330     0.7870    -0.2970 c3         1 62T       0.025000
      4 C4          -3.4110     1.5840    -1.4170 c3         1 62T       0.133800
      5 C7          -4.9190     4.6710    -3.8900 ca         1 62T      -0.138000
      6 C8          -6.2840     4.8050    -3.7130 ca         1 62T      -0.051000
      7 C9          -6.8950     4.2800    -2.5890 ca         1 62T      -0.215000
      8 C11         -8.1510     3.2820    -0.4120 c3         1 62T       0.188400
      9 C12         -8.6410     2.6450     0.8890 c3         1 62T       0.223400
     10 C13         -2.9600     3.6880    -0.2980 c3         1 62T       0.133800
     11 C14         -2.2640     2.9770     0.8660 c3         1 62T       0.025000
     12 C15         -0.0880    -1.2320    -2.0340 cc         1 62T       0.118100
     13 C16          0.7650    -2.1320    -1.5350 cd         1 62T      -0.130100
     14 C17         -0.0720    -2.6410    -3.8440 cd         1 62T      -0.095400
     15 C18         -0.4190    -3.1680    -5.2130 c3         1 62T       0.679200
     16 C19         -0.5500    -1.5140    -3.3110 cc         1 62T      -0.060000
     17 C20          1.5320     0.0000     0.0000 c3         1 62T      -0.004300
     18 C23          2.1950     2.4090    -2.9270 c3         1 62T       0.012900
     19 C25          3.4100     0.8690     3.1980 ca         1 62T      -0.204900
     20 C26          3.7410     2.0410     3.8890 ca         1 62T      -0.115300
     21 C29          4.3870     0.6690     5.7330 ca         1 62T       0.414200
     22 C30          3.5870    -0.3600     3.8330 ca         1 62T       0.381200
     23 C32         -0.0230    -1.0260     2.2800 c3         1 62T      -0.038400
     24 F5           3.9630     4.3910     4.1420 f          1 62T      -0.199967
     25 C27          3.5620     3.3930     3.2480 c3         1 62T       0.652200
     26 F3           4.3410     3.4660     2.0880 f          1 62T      -0.199967
     27 F4           2.2160     3.5780     2.9170 f          1 62T      -0.199967
     28 C28          4.2360     1.9260     5.1750 ca         1 62T      -0.175300
     29 N3           4.0570    -0.4180     5.0620 nb         1 62T      -0.562000
     30 O4           3.2240     1.8290     1.0750 o          1 62T      -0.610100
     31 N2           2.0050     0.0000     1.3910 n          1 62T      -0.112800
     32 C31          1.5090    -1.0380     2.3050 c3         1 62T      -0.006000
     33 C           -0.5060    -1.1780     0.8360 c3         1 62T      -0.096400
     34 C21          2.0440     1.2500    -0.7190 c3         1 62T      -0.079400
     35 O3          -0.4770    -0.1260    -1.3410 os         1 62T      -0.265900
     36 F2          -1.7160    -2.7690    -5.5520 f          1 62T      -0.202300
     37 F1           0.4850    -2.6590    -6.1520 f          1 62T      -0.202300
     38 F           -0.3480    -4.5650    -5.2070 f          1 62T      -0.202300
     39 S            1.0210    -3.4170    -2.7070 ss         1 62T      -0.185800
     40 O            0.2400     1.9880     1.2500 o          1 62T      -0.626100
     41 N           -1.7820     1.6700     0.3950 n          1 62T      -0.129800
     42 N1          -3.9960     2.8090    -0.8560 nh         1 62T      -0.379000
     43 C5          -4.7640     3.4820    -1.8130 ca         1 62T      -0.038400
     44 C10         -6.1390     3.6180    -1.6360 ca         1 62T       0.180100
     45 O1          -6.7380     3.1060    -0.5280 os         1 62T      -0.272900
     46 O2          -8.0810     3.3450     2.0030 oh         1 62T      -0.581800
     47 C6          -4.1590     4.0060    -2.9450 ca         1 62T      -0.094000
     48 H1          -2.2020    -0.0570    -0.7220 h1         1 62T       0.045450
     49 H2          -3.4810     0.4370     0.4040 h1         1 62T       0.045450
     50 H3          -4.1940     0.9830    -1.8650 h1         1 62T       0.021700
     51 H4          -2.6760     1.8470    -2.1680 h1         1 62T       0.021700
     52 H5          -4.4460     5.0820    -4.7730 ha         1 62T       0.107000
     53 H6          -6.8770     5.3250    -4.4560 ha         1 62T       0.101000
     54 H7          -7.9640     4.3870    -2.4540 ha         1 62T       0.121000
     55 H8          -8.6440     2.8090    -1.2530 h1         1 62T       0.007700
     56 H9          -8.3840     4.3400    -0.4060 h1         1 62T       0.007700
     57 H10         -8.3310     1.6080     0.9220 h1         1 62T      -0.007300
     58 H11         -9.7220     2.7010     0.9340 h1         1 62T      -0.007300
     59 H12         -3.4180     4.6020     0.0610 h1         1 62T       0.021700
     60 H13         -2.2320     3.9200    -1.0660 h1         1 62T       0.021700
     61 H14         -2.9670     2.8330     1.6770 h1         1 62T       0.045450
     62 H15         -1.4240     3.5720     1.2050 h1         1 62T       0.045450
     63 H16          1.2270    -2.0790    -0.5560 h4         1 62T       0.205000
     64 H17         -1.2450    -0.8700    -3.8360 ha         1 62T       0.142000
     65 H18          1.8930    -0.8880    -0.5040 h1         1 62T       0.060700
     66 H19          1.8830     0.3020    -2.6390 hc         1 62T       0.020200
     67 H20          0.4940     1.3100    -2.2080 hc         1 62T       0.020200
     68 H21          1.9800     3.3300    -2.3980 hc         1 62T       0.001367
     69 H22          3.2670     2.2560    -2.9630 hc         1 62T       0.001367
     70 H23          1.8050     2.4730    -3.9360 hc         1 62T       0.001367
     71 H24          4.7730     0.5750     6.7410 h4         1 62T      -0.012900
     72 H25          3.3270    -1.2750     3.3150 h4         1 62T       0.008100
     73 H26         -0.3830    -0.0870     2.6830 hc         1 62T       0.035700
     74 H27         -0.3990    -1.8490     2.8740 hc         1 62T       0.035700
     75 H28          4.5070     2.8110     5.7390 ha         1 62T       0.134000
     76 H29          1.8690    -2.0070     1.9810 h1         1 62T       0.043700
     77 H30          1.8560    -0.8320     3.3100 h1         1 62T       0.043700
     78 H31         -0.1210    -2.1030     0.4230 hc         1 62T       0.045700
     79 H32         -1.5890    -1.1920     0.8180 hc         1 62T       0.045700
     80 H33          1.6580     2.1340    -0.2260 hc         1 62T       0.080700
     81 H34          3.1270     1.2650    -0.6890 hc         1 62T       0.080700
     82 H35         -8.4510     3.0100     2.8030 ho         1 62T       0.389000
     83 H36         -3.0900     3.9020    -3.0860 ha         1 62T       0.112000
     84 C22          1.5740     1.2310    -2.1740 c3         1 62T      -0.069400
     85 C24          2.8770     0.9340     1.8200 c          1 62T       0.617700
@<TRIPOS>BOND
     1     1     2 1   
     2     1    17 1   
     3     1    33 1   
     4     1    35 1   
     5     2    40 2   
     6     2    41 1   
     7     3     4 1   
     8     3    41 1   
     9     3    48 1   
    10     3    49 1   
    11     4    42 1   
    12     4    50 1   
    13     4    51 1   
    14     5     6 ar  
    15     5    47 ar  
    16     5    52 1   
    17     6     7 ar  
    18     6    53 1   
    19     7    44 ar  
    20     7    54 1   
    21     8     9 1   
    22     8    45 1   
    23     8    55 1   
    24     8    56 1   
    25     9    46 1   
    26     9    57 1   
    27     9    58 1   
    28    10    11 1   
    29    10    42 1   
    30    10    59 1   
    31    10    60 1   
    32    11    41 1   
    33    11    61 1   
    34    11    62 1   
    35    12    13 2   
    36    12    16 1   
    37    12    35 1   
    38    13    39 1   
    39    13    63 1   
    40    14    15 1   
    41    14    16 2   
    42    14    39 1   
    43    15    36 1   
    44    15    37 1   
    45    15    38 1   
    46    16    64 1   
    47    17    31 1   
    48    17    34 1   
    49    17    65 1   
    50    18    68 1   
    51    18    69 1   
    52    18    70 1   
    53    18    84 1   
    54    19    20 ar  
    55    19    22 ar  
    56    19    85 1   
    57    20    25 1   
    58    20    28 ar  
    59    21    28 ar  
    60    21    29 ar  
    61    21    71 1   
    62    22    29 ar  
    63    22    72 1   
    64    23    32 1   
    65    23    33 1   
    66    23    73 1   
    67    23    74 1   
    68    24    25 1   
    69    25    26 1   
    70    25    27 1   
    71    28    75 1   
    72    30    85 2   
    73    31    32 1   
    74    31    85 1   
    75    32    76 1   
    76    32    77 1   
    77    33    78 1   
    78    33    79 1   
    79    34    80 1   
    80    34    81 1   
    81    34    84 1   
    82    42    43 1   
    83    43    44 ar  
    84    43    47 ar  
    85    44    45 1   
    86    46    82 1   
    87    47    83 1   
    88    66    84 1   
    89    67    84 1   
@<TRIPOS>SUBSTRUCTURE
     1 62T         1 TEMP              0 ****  ****    0 ROOT
