@<TRIPOS>MOLECULE
molecule
   85    89     1     0     0
SMALL
bcc


@<TRIPOS>ATOM
      1 C1           0.0000     0.0000     0.0000 c3         1 62T       0.064800
      2 C2          -0.5040     1.2900     0.5940 c          1 62T       0.684100
      3 C3          -2.7330     0.7870    -0.2970 c3         1 62T       0.098500
      4 C4          -3.4110     1.5840    -1.4170 c3         1 62T       0.154800
      5 C7          -4.9190     4.6710    -3.8900 ca         1 62T      -0.162000
      6 C8          -6.2840     4.8050    -3.7130 ca         1 62T      -0.089000
      7 C9          -6.8950     4.2800    -2.5890 ca         1 62T      -0.225000
      8 C11         -8.1510     3.2820    -0.4120 c3         1 62T       0.136400
      9 C12         -8.6410     2.6450     0.8890 c3         1 62T       0.144400
     10 C13         -2.9600     3.6880    -0.2980 c3         1 62T       0.154800
     11 C14         -2.2640     2.9770     0.8660 c3         1 62T       0.098500
     12 C15         -0.0880    -1.2320    -2.0340 cc         1 62T       0.106100
     13 C16          0.7650    -2.1320    -1.5350 cd         1 62T      -0.188100
     14 C17         -0.0720    -2.6410    -3.8440 cd         1 62T      -0.131400
     15 C18         -0.4190    -3.1680    -5.2130 c3         1 62T       0.708200
     16 C19         -0.5500    -1.5140    -3.3110 cc         1 62T      -0.101000
     17 C20          1.5320     0.0000     0.0000 c3         1 62T       0.099700
     18 C23          2.1950     2.4090    -2.9270 c3         1 62T      -0.085100
     19 C25          3.4100     0.8690     3.1980 ca         1 62T      -0.218900
     20 C26          3.7410     2.0410     3.8890 ca         1 62T      -0.090300
     21 C29          4.3870     0.6690     5.7330 ca         1 62T       0.432200
     22 C30          3.5870    -0.3600     3.8330 ca         1 62T       0.420200
     23 C32         -0.0230    -1.0260     2.2800 c3         1 62T      -0.098400
     24 F5           3.9630     4.3910     4.1420 f          1 62T      -0.207967
     25 C27          3.5620     3.3930     3.2480 c3         1 62T       0.675200
     26 F3           4.3410     3.4660     2.0880 f          1 62T      -0.207967
     27 F4           2.2160     3.5780     2.9170 f          1 62T      -0.207967
     28 C28          4.2360     1.9260     5.1750 ca         1 62T      -0.219300
     29 N3           4.0570    -0.4180     5.0620 nb         1 62T      -0.680000
     30 O4           3.2240     1.8290     1.0750 o          1 62T      -0.570100
     31 N2           2.0050     0.0000     1.3910 n          1 62T      -0.469800
     32 C31          1.5090    -1.0380     2.3050 c3         1 62T       0.076000
     33 C           -0.5060    -1.1780     0.8360 c3         1 62T      -0.122400
     34 C21          2.0440     1.2500    -0.7190 c3         1 62T      -0.084400
     35 O3          -0.4770    -0.1260    -1.3410 os         1 62T      -0.298900
     36 F2          -1.7160    -2.7690    -5.5520 f          1 62T      -0.215967
     37 F1           0.4850    -2.6590    -6.1520 f          1 62T      -0.215967
     38 F           -0.3480    -4.5650    -5.2070 f          1 62T      -0.215967
     39 S            1.0210    -3.4170    -2.7070 ss         1 62T      -0.055800
     40 O            0.2400     1.9880     1.2500 o          1 62T      -0.582100
     41 N           -1.7820     1.6700     0.3950 n          1 62T      -0.478800
     42 N1          -3.9960     2.8090    -0.8560 nh         1 62T      -0.601000
     43 C5          -4.7640     3.4820    -1.8130 ca         1 62T       0.047600
     44 C10         -6.1390     3.6180    -1.6360 ca         1 62T       0.169100
     45 O1          -6.7380     3.1060    -0.5280 os         1 62T      -0.294900
     46 O2          -8.0810     3.3450     2.0030 oh         1 62T      -0.597800
     47 C6          -4.1590     4.0060    -2.9450 ca         1 62T      -0.124000
     48 H1          -2.2020    -0.0570    -0.7220 h1         1 62T       0.069200
     49 H2          -3.4810     0.4370     0.4040 h1         1 62T       0.069200
     50 H3          -4.1940     0.9830    -1.8650 h1         1 62T       0.046950
     51 H4          -2.6760     1.8470    -2.1680 h1         1 62T       0.046950
     52 H5          -4.4460     5.0820    -4.7730 ha         1 62T       0.132000
     53 H6          -6.8770     5.3250    -4.4560 ha         1 62T       0.130000
     54 H7          -7.9640     4.3870    -2.4540 ha         1 62T       0.136000
     55 H8          -8.6440     2.8090    -1.2530 h1         1 62T       0.042700
     56 H9          -8.3840     4.3400    -0.4060 h1         1 62T       0.042700
     57 H10         -8.3310     1.6080     0.9220 h1         1 62T       0.032700
     58 H11         -9.7220     2.7010     0.9340 h1         1 62T       0.032700
     59 H12         -3.4180     4.6020     0.0610 h1         1 62T       0.046950
     60 H13         -2.2320     3.9200    -1.0660 h1         1 62T       0.046950
     61 H14         -2.9670     2.8330     1.6770 h1         1 62T       0.069200
     62 H15         -1.4240     3.5720     1.2050 h1         1 62T       0.069200
     63 H16          1.2270    -2.0790    -0.5560 h4         1 62T       0.203000
     64 H17         -1.2450    -0.8700    -3.8360 ha         1 62T       0.174000
     65 H18          1.8930    -0.8880    -0.5040 h1         1 62T       0.073700
     66 H19          1.8830     0.3020    -2.6390 hc         1 62T       0.042200
     67 H20          0.4940     1.3100    -2.2080 hc         1 62T       0.042200
     68 H21          1.9800     3.3300    -2.3980 hc         1 62T       0.033033
     69 H22          3.2670     2.2560    -2.9630 hc         1 62T       0.033033
     70 H23          1.8050     2.4730    -3.9360 hc         1 62T       0.033033
     71 H24          4.7730     0.5750     6.7410 h4         1 62T       0.033100
     72 H25          3.3270    -1.2750     3.3150 h4         1 62T       0.043100
     73 H26         -0.3830    -0.0870     2.6830 hc         1 62T       0.064700
     74 H27         -0.3990    -1.8490     2.8740 hc         1 62T       0.064700
     75 H28          4.5070     2.8110     5.7390 ha         1 62T       0.163000
     76 H29          1.8690    -2.0070     1.9810 h1         1 62T       0.059700
     77 H30          1.8560    -0.8320     3.3100 h1         1 62T       0.059700
     78 H31         -0.1210    -2.1030     0.4230 hc         1 62T       0.065200
     79 H32         -1.5890    -1.1920     0.8180 hc         1 62T       0.065200
     80 H33          1.6580     2.1340    -0.2260 hc         1 62T       0.092200
     81 H34          3.1270     1.2650    -0.6890 hc         1 62T       0.092200
     82 H35         -8.4510     3.0100     2.8030 ho         1 62T       0.402000
     83 H36         -3.0900     3.9020    -3.0860 ha         1 62T       0.138000
     84 C22          1.5740     1.2310    -2.1740 c3         1 62T      -0.107400
     85 C24          2.8770     0.9340     1.8200 c          1 62T       0.686700
@<TRIPOS>BOND
     1    29    21 ar
     2    29    22 ar
     3    21    28 ar
     4    22    19 ar
     5    28    20 ar
     6    18    84 1
     7    84    34 1
     8    19    20 ar
     9    19    85 1
    10    20    25 1
    11    85    30 2
    12    85    31 1
    13    34    17 1
    14    31    32 1
    15    31    17 1
    16    26    25 1
    17    25    24 1
    18    25    27 1
    19    32    23 1
    20    17     1 1
    21    23    33 1
    22     1    33 1
    23     1    35 1
    24     1     2 1
    25    11    41 1
    26    11    10 1
    27    35    12 1
    28     2    41 1
    29     2    40 2
    30    41     3 1
    31     3     4 1
    32    10    42 1
    33    12    16 1
    34    12    13 2
    35    16    14 2
    36    42     4 1
    37    42    43 1
    38    13    39 1
    39    43    47 ar
    40    43    44 ar
    41    14    15 1
    42    14    39 1
    43    45    44 1
    44    45     8 1
    45    38    15 1
    46     9     8 1
    47     9    46 1
    48    47     5 ar
    49    44     7 ar
    50    15    37 1
    51    15    36 1
    52     5     6 ar
    53     7     6 ar
    54     3    48 1
    55     3    49 1
    56     4    50 1
    57     4    51 1
    58     5    52 1
    59     6    53 1
    60     7    54 1
    61     8    55 1
    62     8    56 1
    63     9    57 1
    64     9    58 1
    65    10    59 1
    66    10    60 1
    67    11    61 1
    68    11    62 1
    69    13    63 1
    70    16    64 1
    71    17    65 1
    72    84    66 1
    73    84    67 1
    74    18    68 1
    75    18    69 1
    76    18    70 1
    77    21    71 1
    78    22    72 1
    79    23    73 1
    80    23    74 1
    81    28    75 1
    82    32    76 1
    83    32    77 1
    84    33    78 1
    85    33    79 1
    86    34    80 1
    87    34    81 1
    88    46    82 1
    89    47    83 1
@<TRIPOS>SUBSTRUCTURE
     1 62T         1 TEMP              0 ****  ****    0 ROOT
