@<TRIPOS>MOLECULE
molecule
   26    25     1     0     0
SMALL
bcc


@<TRIPOS>ATOM
      1 OAA          0.0000     0.0000     0.0000 oh         1 62W      -0.615800
      2 CAG          1.4290     0.0000     0.0000 c3         1 62W       0.110400
      3 CAI          1.9400     0.0000     1.4420 c3         1 62W       0.135100
      4 OAC          1.5620     1.2210     2.0800 oh         1 62W      -0.590800
      5 CAK          3.4650    -0.1260     1.4430 c3         1 62W       0.152100
      6 OAE          3.8420    -1.3470     0.8030 oh         1 62W      -0.567800
      7 CAL          3.9760    -0.1260     2.8850 c3         1 62W       0.152100
      8 OAF          3.3180    -1.1580     3.6230 oh         1 62W      -0.567800
      9 CAJ          5.4850    -0.3770     2.8910 c3         1 62W       0.135100
     10 OAD          5.7700    -1.5860     2.1860 oh         1 62W      -0.590800
     11 CAH          5.9750    -0.5010     4.3350 c3         1 62W       0.110400
     12 OAB          7.3990    -0.6180     4.3460 oh         1 62W      -0.615800
     13 H1          -0.3140    -0.0590    -0.8870 ho         1 62W       0.406000
     14 H2           1.7900     0.8840    -0.5110 h1         1 62W       0.032450
     15 H3           1.7900    -0.8840    -0.5110 h1         1 62W       0.032450
     16 H4           1.5080    -0.8360     1.9780 h1         1 62W       0.056200
     17 H5           0.7010     1.1280     2.4540 ho         1 62W       0.409000
     18 H6           3.8970     0.7110     0.9070 h1         1 62W       0.048700
     19 H7           4.2100    -1.1580    -0.0440 ho         1 62W       0.393000
     20 H8           3.7670     0.8340     3.3420 h1         1 62W       0.048700
     21 H9           2.9210    -0.7890     4.3940 ho         1 62W       0.393000
     22 H10          5.9910     0.4500     2.4080 h1         1 62W       0.056200
     23 H11          6.6640    -1.5720     1.8850 ho         1 62W       0.409000
     24 H12          5.6810     0.3800     4.8930 h1         1 62W       0.032450
     25 H13          5.5370    -1.3800     4.7910 h1         1 62W       0.032450
     26 H14          7.7120    -0.5580     5.2340 ho         1 62W       0.406000
@<TRIPOS>BOND
     1    12    11 1   
     2    10     9 1   
     3     9    11 1   
     4     9     7 1   
     5     8     7 1   
     6     6     5 1   
     7     7     5 1   
     8     5     3 1   
     9     3     4 1   
    10     3     2 1   
    11     2     1 1   
    12     1    13 1   
    13     2    14 1   
    14     2    15 1   
    15     3    16 1   
    16     4    17 1   
    17     5    18 1   
    18     6    19 1   
    19     7    20 1   
    20     8    21 1   
    21     9    22 1   
    22    10    23 1   
    23    11    24 1   
    24    11    25 1   
    25    12    26 1   
@<TRIPOS>SUBSTRUCTURE
     1 62W         1 TEMP              0 ****  ****    0 ROOT
