@<TRIPOS>MOLECULE
molecule
   64    66     1     0     0
SMALL
bcc


@<TRIPOS>ATOM
      1 C4           0.0000     0.0000     0.0000 c3         1 62X       0.160800
      2 C5           1.5300     0.0000     0.0000 c3         1 62X      -0.080400
      3 C6           2.0410     0.0000     1.4420 c3         1 62X       0.153800
      4 C8           4.0350     1.2540     0.8860 c3         1 62X       0.139800
      5 C10          6.0400     2.3590    -0.1130 c3         1 62X      -0.018500
      6 C15          4.0360    -0.2390     2.7930 c3         1 62X       0.157800
      7 C21          4.3160    -1.9520     4.6120 c3         1 62X       0.083100
      8 C24          6.9530    -3.8130     1.5310 cc         1 62X       0.443700
      9 C26          7.6700    -5.8300     1.8750 ca         1 62X      -0.162200
     10 C1          -0.1390    -1.2520    -2.0680 c3         1 62X       0.150100
     11 N2          -0.4890     0.0010    -1.3850 n3         1 62X      -0.738600
     12 C3          -1.9380     0.2390    -1.4310 c3         1 62X       0.150100
     13 N7           3.5090     0.0000     1.4430 n3         1 62X      -0.712600
     14 C9           5.4890     1.0500     0.4540 c3         1 62X      -0.088400
     15 N11          5.3150     2.7060    -1.3420 nz         1 62X      -0.805600
     16 C12          7.5050     2.1940    -0.4250 c          1 62X       0.870600
     17 O13          8.4150     2.2770     0.5590 o          1 62X      -0.771300
     18 O14          7.8620     1.9880    -1.5610 o          1 62X      -0.771300
     19 C16          3.8030    -1.7000     3.1800 c3         1 62X       0.132100
     20 O17          4.5450    -2.5630     2.3020 os         1 62X      -0.397600
     21 C18          4.9680    -3.6990     3.0860 c3         1 62X       0.260800
     22 C19          5.3730    -3.0710     4.4440 c3         1 62X       0.091100
     23 O20          5.2720    -4.0280     5.4990 oh         1 62X      -0.557800
     24 O22          3.2510    -2.3920     5.4550 oh         1 62X      -0.572800
     25 N23          6.1170    -4.3580     2.4600 na         1 62X      -0.259000
     26 N25          7.8610    -4.6790     1.1870 nd         1 62X      -0.575100
     27 C27          8.3220    -7.0740     1.9190 ca         1 62X       0.774200
     28 N28          9.4310    -7.3220     1.1310 nv         1 62X      -1.060500
     29 N29          7.8470    -8.0090     2.7380 nb         1 62X      -0.781000
     30 C30          6.7890    -7.7810     3.4940 ca         1 62X       0.702900
     31 N31          6.1470    -6.6320     3.4860 nb         1 62X      -0.748000
     32 C32          6.5480    -5.6380     2.7000 ca         1 62X       0.449800
     33 H1          -0.3610    -0.8850     0.5100 h1         1 62X       0.035200
     34 H2           1.8910    -0.8840    -0.5110 hc         1 62X       0.050700
     35 H3           1.6800    -0.8850     1.9530 h1         1 62X       0.039700
     36 H4           1.6790     0.8840     1.9530 h1         1 62X       0.039700
     37 H5           3.9880     2.0310     1.6390 h1         1 62X       0.025700
     38 H6           3.4410     1.5450     0.0280 h1         1 62X       0.025700
     39 H7           5.9140     3.1500     0.6160 hx         1 62X       0.099700
     40 H8           3.5270     0.4070     3.4980 h1         1 62X       0.050200
     41 H9           5.0980    -0.0260     2.8090 h1         1 62X       0.050200
     42 H10          4.7770    -1.0560     5.0100 h1         1 62X       0.049700
     43 H11          6.8730    -2.8070     1.1370 h5         1 62X       0.093800
     44 H12         -0.8320    -1.4260    -2.8820 h1         1 62X       0.034533
     45 H13          0.8680    -1.1810    -2.4600 h1         1 62X       0.034533
     46 H14         -0.1950    -2.0750    -1.3650 h1         1 62X       0.034533
     47 H15         -2.2620     0.2960    -2.4630 h1         1 62X       0.034533
     48 H16         -2.1680     1.1700    -0.9280 h1         1 62X       0.034533
     49 H17         -2.4540    -0.5750    -0.9350 h1         1 62X       0.034533
     50 H19          6.0810     0.7500     1.3100 hc         1 62X       0.093200
     51 H20          5.5350     0.2800    -0.3060 hc         1 62X       0.093200
     52 H21          5.9330     2.6360    -2.1260 hn         1 62X       0.441467
     53 H22          4.9690     3.6420    -1.2720 hn         1 62X       0.441467
     54 H25          2.7480    -1.9380     3.1220 h1         1 62X       0.076700
     55 H26          4.1480    -4.3940     3.2200 h2         1 62X       0.111700
     56 H27          6.3700    -2.6510     4.3890 h1         1 62X       0.063700
     57 H28          5.9200    -3.8390     6.1580 ho         1 62X       0.407000
     58 H29          3.1900    -1.8250     6.2060 ho         1 62X       0.406000
     59 H30          9.3210    -7.4770     0.1480 hn         1 62X       0.444800
     60 H31         10.3380    -7.3840     1.5490 hn         1 62X       0.444800
     61 H32          6.4360    -8.5700     4.1470 h5         1 62X       0.061100
     62 H33         -0.3610     0.8840     0.5110 h1         1 62X       0.035200
     63 H34          1.8910     0.8850    -0.5110 hc         1 62X       0.050700
     64 H113         4.5420     2.0810    -1.4610 hn         1 62X       0.441467
@<TRIPOS>BOND
     1    29    30 ar
     2    29    27 ar
     3    28    27 1
     4    30    31 ar
     5    27     9 ar
     6    31    32 ar
     7     9    32 ar
     8     9    26 1
     9    32    25 1
    10    26     8 2
    11    25     8 1
    12    25    21 1
    13    21    22 1
    14    21    20 1
    15    15     5 1
    16    22    23 1
    17    22     7 1
    18    20    19 1
    19    17    16 1
    20     5    14 1
    21     5    16 1
    22     7    19 1
    23     7    24 1
    24    19     6 1
    25    14     4 1
    26    16    18 1
    27     4    13 1
    28     6    13 1
    29    13     3 1
    30     3     2 1
    31     2     1 1
    32    12    11 1
    33     1    11 1
    34    11    10 1
    35     1    33 1
    36     2    34 1
    37     3    35 1
    38     3    36 1
    39     4    37 1
    40     4    38 1
    41     5    39 1
    42     6    40 1
    43     6    41 1
    44     7    42 1
    45     8    43 1
    46    10    44 1
    47    10    45 1
    48    10    46 1
    49    12    47 1
    50    12    48 1
    51    12    49 1
    52    14    50 1
    53    14    51 1
    54    15    52 1
    55    15    53 1
    56    19    54 1
    57    21    55 1
    58    22    56 1
    59    23    57 1
    60    24    58 1
    61    28    59 1
    62    28    60 1
    63    30    61 1
    64     1    62 1
    65     2    63 1
    66    64    15 1
@<TRIPOS>SUBSTRUCTURE
     1 62X         1 TEMP              0 ****  ****    0 ROOT
