@<TRIPOS>MOLECULE
molecule
   26    27     1     0     0
SMALL
bcc


@<TRIPOS>ATOM
      1 CAB          0.0000     0.0000     0.0000 ca         1 62Y      -0.160000
      2 CAC          1.3830     0.0000     0.0000 ca         1 62Y      -0.066500
      3 CAD          2.0740     0.0000     1.1970 ca         1 62Y      -0.227500
      4 CAE          1.3830     0.0000     2.3930 ca         1 62Y      -0.066500
      5 CAF          0.0000     0.0020     2.3940 ca         1 62Y      -0.160000
      6 CAG         -0.6910     0.0000     1.1970 ca         1 62Y      -0.132000
      7 OAH          4.3820     1.2620     0.6060 o          1 62Y      -0.793500
      8 OAI          4.4230    -1.2460     0.3250 o          1 62Y      -0.793500
      9 OAK          4.4250    -0.1340     2.7080 os         1 62Y      -0.477500
     10 CAL          5.7750    -0.0370     2.8260 ca         1 62Y       0.192100
     11 CAM          6.3680     1.2010     3.0250 ca         1 62Y      -0.126000
     12 CAN          7.7410     1.2980     3.1430 ca         1 62Y      -0.125000
     13 CAO          8.5240     0.1620     3.0640 ca         1 62Y      -0.141000
     14 CAP          7.9360    -1.0740     2.8660 ca         1 62Y      -0.002900
     15 CAQ          6.5620    -1.1770     2.7520 ca         1 62Y      -0.113000
     16 P            3.8880    -0.0020     1.1960 p5         1 62Y       1.185900
     17 Br           9.0120    -2.6250     2.7570 br         1 62Y      -0.138100
     18 HAB         -0.5420    -0.0010    -0.9380 ha         1 62Y       0.107500
     19 HAC          1.9240     0.0000    -0.9380 ha         1 62Y       0.136000
     20 HAG         -1.7750     0.0010     1.1970 ha         1 62Y       0.103000
     21 HAE          1.9240     0.0010     3.3320 ha         1 62Y       0.136000
     22 HAF         -0.5410     0.0020     3.3320 ha         1 62Y       0.107500
     23 HAM          5.7550     2.0920     3.0870 ha         1 62Y       0.148000
     24 HAQ          6.1010    -2.1450     2.5970 ha         1 62Y       0.165000
     25 HAN          8.2040     2.2650     3.2990 ha         1 62Y       0.120000
     26 HAO          9.6010     0.2400     3.1550 ha         1 62Y       0.122000
@<TRIPOS>BOND
     1     1     2 ar  
     2     1     6 ar  
     3     2     3 ar  
     4     3     4 ar  
     5     3    16 1   
     6     4     5 ar  
     7     5     6 ar  
     8     7    16 1   
     9     8    16 1   
    10     9    10 1   
    11     9    16 1   
    12    10    11 ar  
    13    10    15 ar  
    14    11    12 ar  
    15    12    13 ar  
    16    13    14 ar  
    17    14    15 ar  
    18    14    17 1   
    19     1    18 1   
    20     2    19 1   
    21     6    20 1   
    22     4    21 1   
    23     5    22 1   
    24    11    23 1   
    25    15    24 1   
    26    12    25 1   
    27    13    26 1   
@<TRIPOS>SUBSTRUCTURE
     1 62Y         1 TEMP              0 ****  ****    0 ROOT
