@<TRIPOS>MOLECULE
62Y
   26    27     1     0     0
SMALL
bcc


@<TRIPOS>ATOM
      1 CAB         0.2440   -0.9750    0.6750 ca        1 62Y     -0.175000
      2 CAC         1.5940   -0.6690    0.4930 ca        1 62Y     -0.040000
      3 CAD         2.1550    0.4230    1.1440 ca        1 62Y     -0.346500
      4 CAE         1.3750    1.2210    1.9710 ca        1 62Y     -0.040000
      5 CAF         0.0240    0.9250    2.1600 ca        1 62Y     -0.175000
      6 CAG        -0.5370   -0.1770    1.5120 ca        1 62Y     -0.112000
      7 OAH         4.0400    2.1860    1.2950 o         1 62Y     -0.847500
      8 OAI         4.2750    0.1370   -0.3050 o         1 62Y     -0.847500
      9 OAK         4.4200   -0.1210    2.1960 os        1 62Y     -0.499500
     10 CAL         5.7330   -0.1500    2.4590 ca        1 62Y      0.251100
     11 CAM         6.3370    0.8250    3.2850 ca        1 62Y     -0.176000
     12 CAN         7.6720    0.6980    3.6460 ca        1 62Y     -0.117000
     13 CAO         8.4330   -0.3890    3.2160 ca        1 62Y     -0.175000
     14 CAP         7.8400   -1.3550    2.3990 ca        1 62Y      0.006100
     15 CAQ         6.5070   -1.2490    2.0150 ca        1 62Y     -0.162000
     16 P           3.7530    0.7890    0.9110 p5        1 62Y      1.407900
     17 Br          8.8670   -2.8250    1.8190 br        1 62Y     -0.155100
     18 HAB        -0.2020   -1.8390    0.1640 ha        1 62Y      0.113500
     19 HAC         2.2460   -1.2640   -0.1690 ha        1 62Y      0.161500
     20 HAG        -1.6000   -0.4160    1.6600 ha        1 62Y      0.106000
     21 HAE         1.8570    2.0890    2.4530 ha        1 62Y      0.161500
     22 HAF        -0.5950    1.5530    2.8140 ha        1 62Y      0.113500
     23 HAM         5.7420    1.6920    3.6100 ha        1 62Y      0.155000
     24 HAQ         6.0340   -1.9920    1.3560 ha        1 62Y      0.158000
     25 HAN         8.1390    1.4650    4.2810 ha        1 62Y      0.113000
     26 HAO         9.4860   -0.4750    3.5150 ha        1 62Y      0.121000
@<TRIPOS>BOND
     1    1    2 ar  
     2    1    6 ar  
     3    1   18 1   
     4    2    3 ar  
     5    2   19 1   
     6    3    4 ar  
     7    3   16 1   
     8    4    5 ar  
     9    4   21 1   
    10    5    6 ar  
    11    5   22 1   
    12    6   20 1   
    13    7   16 1   
    14    8   16 1   
    15    9   10 1   
    16    9   16 1   
    17   10   11 ar  
    18   10   15 ar  
    19   11   12 ar  
    20   11   23 1   
    21   12   13 ar  
    22   12   25 1   
    23   13   14 ar  
    24   13   26 1   
    25   14   15 ar  
    26   14   17 1   
    27   15   24 1   
@<TRIPOS>SUBSTRUCTURE
     1 62Y         1 TEMP              0 ****  ****    0 ROOT
