@<TRIPOS>MOLECULE
630
   54    57     1     0     0
SMALL
bcc


@<TRIPOS>ATOM
      1 N1           0.0000     0.0000     0.0000 nu         1 630      -0.236300
      2 N3           2.2990     0.0000     0.4040 nb         1 630      -0.794000
      3 C4           3.5630     0.0000     0.0000 ca         1 630       0.759600
      4 C5           3.8260     0.0010    -1.3760 ca         1 630      -0.417400
      5 C6           2.7410     0.0010    -2.2740 ca         1 630       0.334800
      6 C10          5.0360     0.0020    -2.1990 cc         1 630      -0.031800
      7 C13          4.2190    -0.0010     2.2820 c3         1 630       0.209400
      8 C15          5.1340    -0.1270     4.6380 c3         1 630       0.172100
      9 C20          8.8650     1.8780     5.8550 c3         1 630      -0.097400
     10 C21         10.2650     2.4900     5.7700 c3         1 630       0.020900
     11 C24          4.5070    -1.8420     6.1910 c3         1 630       0.246700
     12 C26         -1.4650     0.0020     1.9820 cc         1 630      -0.295300
     13 C2           1.3020     0.0010    -0.4730 ca         1 630       0.754900
     14 N7           1.5040     0.0020    -1.7790 nb         1 630      -0.743000
     15 N8           3.2620     0.0020    -3.5380 na         1 630       0.274900
     16 C9           4.6350     0.0020    -3.4810 cd         1 630      -0.296100
     17 O12          4.5780    -0.0000     0.8980 os         1 630      -0.407100
     18 C14          5.4870    -0.0010     3.1370 c3         1 630      -0.079700
     19 C16          6.1090     0.8240     5.3580 c3         1 630       0.014000
     20 N17          6.9750     1.4210     4.3250 n          1 630      -0.166800
     21 C18          6.1980     1.3740     3.0660 c3         1 630       0.059000
     22 C19          8.2190     1.9100     4.4930 c          1 630       0.608100
     23 O22          8.8210     2.3760     3.5470 o          1 630      -0.645100
     24 O23          5.3320    -1.4710     5.0840 os         1 630      -0.403600
     25 C25         -0.2460    -0.0020     1.3870 cd         1 630      -0.216700
     26 N27         -1.2660    -0.0010     3.3250 na         1 630       0.483400
     27 N28          0.1160    -0.0140     3.5550 nc         1 630      -0.650800
     28 C29          0.7250    -0.0080     2.3970 cd         1 630       0.357200
     29 C30         -2.3110     0.0070     4.3530 c3         1 630       0.028600
     30 H1          -0.7660    -0.0070    -0.6440 hn         1 630       0.285800
     31 H2           3.6340    -0.8860     2.5030 h1         1 630       0.020200
     32 H3           3.6330     0.8830     2.5040 h1         1 630       0.020200
     33 H4           4.1120     0.1860     4.8090 h1         1 630       0.027700
     34 H5           8.2630     2.4490     6.5510 hc         1 630       0.025200
     35 H6           8.9390     0.8530     6.1980 hc         1 630       0.025200
     36 H7          10.1940     3.5030     5.3940 hc         1 630       0.008700
     37 H8          10.7140     2.5010     6.7560 hc         1 630       0.008700
     38 H9          10.8780     1.8980     5.1010 hc         1 630       0.008700
     39 H10          3.6030    -2.3130     5.8260 h1         1 630      -0.008967
     40 H11          4.2490    -0.9580     6.7610 h1         1 630      -0.008967
     41 H12          5.0450    -2.5360     6.8250 h1         1 630      -0.008967
     42 H13         -2.4240     0.0120     1.4770 h4         1 630       0.147000
     43 H14          2.7230     0.0030    -4.3810 hn         1 630       0.121700
     44 H15          5.2940     0.0020    -4.3400 h4         1 630       0.153000
     45 H16          6.1610    -0.7940     2.8360 hc         1 630       0.065700
     46 H17          5.5540     1.6020     5.8690 h1         1 630       0.025700
     47 H18          6.7110     0.2660     6.0660 h1         1 630       0.025700
     48 H19          5.4710     2.1770     3.0370 h1         1 630       0.037200
     49 H20          6.8590     1.4170     2.2080 h1         1 630       0.037200
     50 H21          1.7980    -0.0150     2.2460 h4         1 630       0.062100
     51 H22         -2.9320     0.8860     4.2300 h1         1 630       0.019033
     52 H23         -1.8520     0.0240     5.3350 h1         1 630       0.019033
     53 H24         -2.9210    -0.8830     4.2550 h1         1 630       0.019033
     54 Cl1          6.6760     0.0020    -1.6280 cl         1 630       0.018600
@<TRIPOS>BOND
     1     1    13 1   
     2     1    25 1   
     3     1    30 1   
     4     2     3 ar  
     5     2    13 ar  
     6     3     4 ar  
     7     3    17 1   
     8     4     5 ar  
     9     4     6 1   
    10     5    14 ar  
    11     5    15 1   
    12     6    16 2   
    13     6    54 1   
    14     7    17 1   
    15     7    18 1   
    16     7    31 1   
    17     7    32 1   
    18     8    18 1   
    19     8    19 1   
    20     8    24 1   
    21     8    33 1   
    22     9    10 1   
    23     9    22 1   
    24     9    34 1   
    25     9    35 1   
    26    10    36 1   
    27    10    37 1   
    28    10    38 1   
    29    11    24 1   
    30    11    39 1   
    31    11    40 1   
    32    11    41 1   
    33    12    25 2   
    34    12    26 1   
    35    12    42 1   
    36    13    14 ar  
    37    15    16 1   
    38    15    43 1   
    39    16    44 1   
    40    18    21 1   
    41    18    45 1   
    42    19    20 1   
    43    19    46 1   
    44    19    47 1   
    45    20    21 1   
    46    20    22 1   
    47    21    48 1   
    48    21    49 1   
    49    22    23 2   
    50    25    28 1   
    51    26    27 1   
    52    26    29 1   
    53    27    28 2   
    54    28    50 1   
    55    29    51 1   
    56    29    52 1   
    57    29    53 1   
@<TRIPOS>SUBSTRUCTURE
     1 630         1 TEMP              0 ****  ****    0 ROOT
