@<TRIPOS>MOLECULE
molecule
   54    57     1     0     0
SMALL
bcc


@<TRIPOS>ATOM
      1 N1           0.0000     0.0000     0.0000 nu         1 630      -0.725300
      2 N3           2.2990     0.0000     0.4040 nb         1 630      -0.893000
      3 C4           3.5630     0.0000     0.0000 ca         1 630       0.778600
      4 C5           3.8260     0.0010    -1.3760 ca         1 630      -0.402400
      5 C6           2.7410     0.0010    -2.2740 ca         1 630       0.565800
      6 C10          5.0360     0.0020    -2.1990 cc         1 630       0.017200
      7 C13          4.2190    -0.0010     2.2820 c3         1 630       0.143400
      8 C15          5.1340    -0.1270     4.6380 c3         1 630       0.133100
      9 C20          8.8650     1.8780     5.8550 c3         1 630      -0.155400
     10 C21         10.2650     2.4900     5.7700 c3         1 630      -0.077100
     11 C24          4.5070    -1.8420     6.1910 c3         1 630       0.123700
     12 C26         -1.4650     0.0020     1.9820 cd         1 630      -0.162300
     13 C2           1.3020     0.0010    -0.4730 ca         1 630       1.005900
     14 N7           1.5040     0.0020    -1.7790 nb         1 630      -0.852000
     15 N8           3.2620     0.0020    -3.5380 na         1 630      -0.271100
     16 C9           4.6350     0.0020    -3.4810 cd         1 630      -0.117100
     17 O12          4.5780    -0.0000     0.8980 os         1 630      -0.415100
     18 C14          5.4870    -0.0010     3.1370 c3         1 630      -0.089700
     19 C16          6.1090     0.8240     5.3580 c3         1 630       0.071000
     20 N17          6.9750     1.4210     4.3250 n          1 630      -0.499800
     21 C18          6.1980     1.3740     3.0660 c3         1 630       0.107000
     22 C19          8.2190     1.9100     4.4930 c          1 630       0.682100
     23 O22          8.8210     2.3760     3.5470 o          1 630      -0.604100
     24 O23          5.3320    -1.4710     5.0840 os         1 630      -0.417600
     25 C25         -0.2460    -0.0020     1.3870 cc         1 630      -0.049700
     26 N27         -1.2660    -0.0010     3.3250 na         1 630       0.059400
     27 N28          0.1160    -0.0140     3.5550 nd         1 630      -0.518800
     28 C29          0.7250    -0.0080     2.3970 cc         1 630       0.326200
     29 C30         -2.3110     0.0070     4.3530 c3         1 630       0.070600
     30 H1          -0.7660    -0.0070    -0.6440 hn         1 630       0.466800
     31 H2           3.6340    -0.8860     2.5030 h1         1 630       0.055200
     32 H3           3.6330     0.8830     2.5040 h1         1 630       0.055200
     33 H4           4.1120     0.1860     4.8090 h1         1 630       0.054700
     34 H5           8.2630     2.4490     6.5510 hc         1 630       0.058200
     35 H6           8.9390     0.8530     6.1980 hc         1 630       0.058200
     36 H7          10.1940     3.5030     5.3940 hc         1 630       0.043700
     37 H8          10.7140     2.5010     6.7560 hc         1 630       0.043700
     38 H9          10.8780     1.8980     5.1010 hc         1 630       0.043700
     39 H10          3.6030    -2.3130     5.8260 h1         1 630       0.034033
     40 H11          4.2490    -0.9580     6.7610 h1         1 630       0.034033
     41 H12          5.0450    -2.5360     6.8250 h1         1 630       0.034033
     42 H13         -2.4240     0.0120     1.4770 h4         1 630       0.169000
     43 H14          2.7230     0.0030    -4.3810 hn         1 630       0.312700
     44 H15          5.2940     0.0020    -4.3400 h4         1 630       0.183000
     45 H16          6.1610    -0.7940     2.8360 hc         1 630       0.100700
     46 H17          5.5540     1.6020     5.8690 h1         1 630       0.052700
     47 H18          6.7110     0.2660     6.0660 h1         1 630       0.052700
     48 H19          5.4710     2.1770     3.0370 h1         1 630       0.068700
     49 H20          6.8590     1.4170     2.2080 h1         1 630       0.068700
     50 H21          1.7980    -0.0150     2.2460 h4         1 630       0.091100
     51 H22         -2.9320     0.8860     4.2300 h1         1 630       0.052700
     52 H23         -1.8520     0.0240     5.3350 h1         1 630       0.052700
     53 H24         -2.9210    -0.8830     4.2550 h1         1 630       0.052700
     54 Cl1          6.6760     0.0020    -1.6280 cl         1 630      -0.070400
@<TRIPOS>BOND
     1    16    15 1
     2    16     6 2
     3    15     5 1
     4     6    54 1
     5     6     4 1
     6     5     4 ar
     7     5    14 ar
     8     4     3 ar
     9    14    13 ar
    10     3     2 ar
    11     3    17 1
    12    13     2 ar
    13    13     1 1
    14    17     7 1
    15     1    25 1
    16    25    12 2
    17    25    28 1
    18    12    26 1
    19     7    18 1
    20    28    27 2
    21    18     8 1
    22    18    21 1
    23    24    11 1
    24    24     8 1
    25    26    27 1
    26    26    29 1
    27     8    19 1
    28    21    20 1
    29    19    20 1
    30    20    22 1
    31    22    23 2
    32    22     9 1
    33     9    10 1
    34     1    30 1
    35     7    31 1
    36     7    32 1
    37     8    33 1
    38     9    34 1
    39     9    35 1
    40    10    36 1
    41    10    37 1
    42    10    38 1
    43    11    39 1
    44    11    40 1
    45    11    41 1
    46    12    42 1
    47    15    43 1
    48    16    44 1
    49    18    45 1
    50    19    46 1
    51    19    47 1
    52    21    48 1
    53    21    49 1
    54    28    50 1
    55    29    51 1
    56    29    52 1
    57    29    53 1
@<TRIPOS>SUBSTRUCTURE
     1 630         1 TEMP              0 ****  ****    0 ROOT
