@<TRIPOS>MOLECULE
molecule
   63    68     1     0     0
SMALL
bcc


@<TRIPOS>ATOM
      1 C01          0.0000     0.0000     0.0000 c3         1 631       0.129700
      2 O02          1.4300     0.0000     0.0000 os         1 631      -0.325900
      3 C03          2.0460     0.0000     1.2120 ca         1 631       0.120100
      4 C04          1.2930    -0.0040     2.3770 ca         1 631      -0.190000
      5 C05          1.9160    -0.0100     3.6080 ca         1 631      -0.120000
      6 C06          3.3060    -0.0110     3.6910 ca         1 631       0.016600
      7 N07          4.1540    -0.0160     4.8030 ns         1 631      -0.456100
      8 C08          5.4530    -0.0160     4.4510 c          1 631       0.744500
      9 O09          6.4060    -0.0200     5.2020 o          1 631      -0.613500
     10 C10          5.4970    -0.0090     2.9440 cx         1 631      -0.180700
     11 C11          6.5630    -0.7710     2.1690 cx         1 631      -0.082400
     12 C12          6.5640     0.7600     2.1760 cx         1 631      -0.035400
     13 C13          6.1430     1.4620     0.9110 ca         1 631      -0.032300
     14 C14          6.1210     0.7480    -0.2860 ca         1 631      -0.163000
     15 C15          5.7500     1.3300    -1.4580 ca         1 631      -0.056000
     16 C16          5.3760     2.6840    -1.4710 ca         1 631      -0.170000
     17 C17          4.9510     3.5810    -2.4610 cc         1 631      -0.028100
     18 C18          4.7750     3.2820    -3.8810 cf         1 631      -0.109000
     19 C19          4.3570     4.2480    -4.7270 ce         1 631      -0.100200
     20 C20          4.1800     3.9480    -6.1570 ca         1 631      -0.064800
     21 C21          3.7470     4.9460    -7.0350 ca         1 631      -0.115500
     22 C22          3.5830     4.6570    -8.3740 ca         1 631      -0.115000
     23 C23          3.8460     3.3840    -8.8470 ca         1 631      -0.071300
     24 C24          3.6640     3.0760   -10.3120 c3         1 631       0.206100
     25 N25          4.9220     3.3370   -11.0260 n3         1 631      -0.726600
     26 C26          4.8600     2.8280   -12.4030 c3         1 631       0.150100
     27 C27          5.2520     4.7670   -11.0070 c3         1 631       0.150100
     28 C28          4.2740     2.3900    -7.9840 ca         1 631      -0.115000
     29 C29          4.4480     2.6650    -6.6440 ca         1 631      -0.115500
     30 N30          4.7330     4.7770    -1.8560 na         1 631       0.021800
     31 N31          5.0090     4.6720    -0.4890 nc         1 631      -0.264400
     32 C32          5.3980     3.4400    -0.2120 ca         1 631      -0.033000
     33 C33          5.7880     2.7720     0.9690 ca         1 631      -0.086000
     34 C34          4.0520    -0.0060     2.5170 ca         1 631      -0.065300
     35 C35          3.4320    -0.0010     1.2890 ca         1 631      -0.105000
     36 H1          -0.3610     0.8840     0.5110 h1         1 631       0.041033
     37 H2          -0.3610     0.0000    -1.0210 h1         1 631       0.041033
     38 H3          -0.3610    -0.8850     0.5110 h1         1 631       0.041033
     39 H4           0.2120    -0.0020     2.3200 ha         1 631       0.138000
     40 H5           1.3210    -0.0130     4.5130 ha         1 631       0.132000
     41 H6           3.8320    -0.0200     5.7510 hn         1 631       0.337500
     42 H7           6.2300    -1.2340     1.2480 hc         1 631       0.090700
     43 H8           7.3320    -1.2420     2.7700 hc         1 631       0.090700
     44 H9           7.3320     1.2100     2.7940 hc         1 631       0.108700
     45 H10          6.4110    -0.2960    -0.2840 ha         1 631       0.132000
     46 H11          5.7410     0.7530    -2.3750 ha         1 631       0.127000
     47 H12          4.9790     2.2860    -4.2540 ha         1 631       0.154000
     48 H13          4.1530     5.2440    -4.3530 ha         1 631       0.121000
     49 H14          3.5400     5.9430    -6.6660 ha         1 631       0.132500
     50 H15          3.2470     5.4290    -9.0560 ha         1 631       0.135000
     51 H16          2.8810     3.7050   -10.7180 h1         1 631       0.040700
     52 H17          3.3900     2.0350   -10.4310 h1         1 631       0.040700
     53 H19          5.8190     2.9740   -12.8850 h1         1 631       0.033033
     54 H20          4.6220     1.7710   -12.3870 h1         1 631       0.033033
     55 H21          4.0940     3.3630   -12.9520 h1         1 631       0.033033
     56 H22          5.9600     4.9850   -11.7980 h1         1 631       0.033033
     57 H23          4.3500     5.3480   -11.1600 h1         1 631       0.033033
     58 H24          5.6890     5.0250   -10.0500 h1         1 631       0.033033
     59 H25          4.4790     1.3960    -8.3630 ha         1 631       0.135000
     60 H26          4.7830     1.8860    -5.9690 ha         1 631       0.132500
     61 H27          4.4210     5.6090    -2.3190 hn         1 631       0.331700
     62 H28          5.9250     3.3300     1.8870 ha         1 631       0.146000
     63 H29          4.0240    -0.0690     0.3840 ha         1 631       0.157000
@<TRIPOS>BOND
     1     7     6 1   
     2     7     8 1   
     3     5     6 ar  
     4     5     4 ar  
     5     9     8 2   
     6     6    34 ar  
     7     8    10 1   
     8     4     3 ar  
     9    34    10 1   
    10    34    35 ar  
    11    10    12 1   
    12    10    11 1   
    13     3    35 ar  
    14     3     2 1   
    15    12    11 1   
    16    12    13 1   
    17     1     2 1   
    18    14    13 ar  
    19    14    15 ar  
    20    13    33 ar  
    21    15    16 ar  
    22    33    32 ar  
    23    29    28 ar  
    24    29    20 ar  
    25    28    23 ar  
    26    16    32 ar  
    27    16    17 2   
    28    27    25 1   
    29    32    31 2   
    30    19    20 1   
    31    19    18 2   
    32    20    21 ar  
    33    23    24 1   
    34    23    22 ar  
    35    24    25 1   
    36    17    18 1   
    37    17    30 1   
    38    25    26 1   
    39    31    30 1   
    40    21    22 ar  
    41     1    36 1   
    42     1    37 1   
    43     1    38 1   
    44     4    39 1   
    45     5    40 1   
    46     7    41 1   
    47    11    42 1   
    48    11    43 1   
    49    12    44 1   
    50    14    45 1   
    51    15    46 1   
    52    18    47 1   
    53    19    48 1   
    54    21    49 1   
    55    22    50 1   
    56    24    51 1   
    57    24    52 1   
    58    26    53 1   
    59    26    54 1   
    60    26    55 1   
    61    27    56 1   
    62    27    57 1   
    63    27    58 1   
    64    28    59 1   
    65    29    60 1   
    66    30    61 1   
    67    33    62 1   
    68    35    63 1   
@<TRIPOS>SUBSTRUCTURE
     1 631         1 TEMP              0 ****  ****    0 ROOT
