@<TRIPOS>MOLECULE
631
   63    70     1     0     0
SMALL
bcc


@<TRIPOS>ATOM
      1 C01          0.0000     0.0000     0.0000 c3         1 631       0.054000
      2 O02          1.4300     0.0000     0.0000 os         1 631      -0.190000
      3 C03          2.0460     0.0000     1.2120 ca         1 631       0.087000
      4 C04          1.2930    -0.0040     2.3770 ca         1 631      -0.183000
      5 C05          1.9160    -0.0100     3.6080 ca         1 631      -0.073000
      6 C06          3.3060    -0.0110     3.6910 ca         1 631      -0.134000
      7 N07          4.1540    -0.0160     4.8030 ns         1 631       0.145000
      8 C08          5.4530    -0.0160     4.4510 c2         1 631       0.255000
      9 O09          6.4060    -0.0200     5.2020 o          1 631      -0.380000
     10 C10          5.4970    -0.0090     2.9440 cx         1 631      -0.137000
     11 C11          6.5630    -0.7710     2.1690 cx         1 631      -0.113000
     12 C12          6.5640     0.7600     2.1760 cx         1 631      -0.046000
     13 C13          6.1430     1.4620     0.9110 ca         1 631      -0.021000
     14 C14          6.1210     0.7480    -0.2860 ca         1 631      -0.152000
     15 C15          5.7500     1.3300    -1.4580 ca         1 631      -0.011000
     16 C16          5.3760     2.6840    -1.4710 ca         1 631      -0.212000
     17 C17          4.9510     3.5810    -2.4610 c3         1 631      -0.190000
     18 C18          4.7750     3.2820    -3.8810 c2         1 631       0.050000
     19 C19          4.3570     4.2480    -4.7270 c2         1 631      -0.179000
     20 C20          4.1800     3.9480    -6.1570 c3         1 631       0.096000
     21 C21          3.7470     4.9460    -7.0350 c2         1 631      -0.178500
     22 C22          3.5830     4.6570    -8.3740 c2         1 631      -0.046000
     23 C23          3.8460     3.3840    -8.8470 c2         1 631      -0.125000
     24 C24          3.6640     3.0760   -10.3120 c3         1 631      -0.028000
     25 N25          4.9220     3.3370   -11.0260 n3         1 631      -0.067000
     26 C26          4.8600     2.8280   -12.4030 c3         1 631      -0.096000
     27 C27          5.2520     4.7670   -11.0070 c3         1 631      -0.096000
     28 C28          4.2740     2.3900    -7.9840 c2         1 631      -0.046000
     29 C29          4.4480     2.6650    -6.6440 c2         1 631      -0.178500
     30 N30          4.7330     4.7770    -1.8560 n7         1 631       0.350000
     31 N31          5.0090     4.6720    -0.4890 n2         1 631      -0.247000
     32 C32          5.3980     3.4400    -0.2120 ca         1 631       0.011000
     33 C33          5.7880     2.7720     0.9690 ca         1 631      -0.073000
     34 C34          4.0520    -0.0060     2.5170 ca         1 631      -0.049000
     35 C35          3.4320    -0.0010     1.2890 ca         1 631      -0.098000
     36 H1          -0.3610     0.8840     0.5110 h1         1 631       0.036667
     37 H2          -0.3610     0.0010    -1.0210 h1         1 631       0.036667
     38 H3          -0.3610    -0.8850     0.5100 h1         1 631       0.036667
     39 H4           0.2120    -0.0020     2.3200 ha         1 631       0.121000
     40 H5           1.3210    -0.0130     4.5130 ha         1 631       0.103000
     41 H6           3.8320    -0.0200     5.7510 hn         1 631       0.088000
     42 H7           6.2300    -1.2340     1.2480 hc         1 631       0.099500
     43 H8           7.3320    -1.2420     2.7700 hc         1 631       0.099500
     44 H9           7.3320     1.2100     2.7940 hc         1 631       0.118000
     45 H10          6.4110    -0.2960    -0.2840 ha         1 631       0.116000
     46 H11          5.7410     0.7530    -2.3750 ha         1 631       0.102000
     47 H12          3.9640     3.3530    -3.1650 DU         1 631       0.100000
     48 H13          3.5060     3.7220    -5.1400 DU         1 631       0.082000
     49 H14          3.5400     5.9430    -6.6660 ha         1 631       0.120000
     50 H15          3.2470     5.4290    -9.0560 ha         1 631       0.109000
     51 H16          3.3900     2.0350   -10.4310 h1         1 631       0.050000
     52 H17          2.8810     3.7050   -10.7180 h1         1 631       0.050000
     53 H19          4.6220     1.7710   -12.3870 h1         1 631       0.041167
     54 H20          4.0940     3.3620   -12.9520 h1         1 631       0.041167
     55 H21          5.8190     2.9750   -12.8850 h1         1 631       0.041167
     56 H22          4.3500     5.3480   -11.1610 h1         1 631       0.041167
     57 H23          5.6880     5.0250   -10.0500 h1         1 631       0.041167
     58 H24          5.9600     4.9850   -11.7970 h1         1 631       0.041167
     59 H25          4.4790     1.3960    -8.3630 ha         1 631       0.109000
     60 H26          4.7830     1.8860    -5.9690 ha         1 631       0.120000
     61 H27          4.4210     5.6090    -2.3190 hn         1 631       0.107000
     62 H28          5.9250     3.3300     1.8870 ha         1 631       0.119000
     63 H29          4.0240    -0.0690     0.3840 ha         1 631       0.133000
@<TRIPOS>BOND
     1     1     2 1   
     2     1    36 1   
     3     1    37 1   
     4     1    38 1   
     5     2     3 1   
     6     3     4 1   
     7     3    35 1   
     8     4     5 1   
     9     4    39 1   
    10     5     6 1   
    11     5    40 1   
    12     6     7 1   
    13     6    34 1   
    14     7     8 1   
    15     7    41 1   
    16     8     9 1   
    17     8    10 1   
    18    10    11 1   
    19    10    12 1   
    20    10    34 1   
    21    11    12 1   
    22    11    42 1   
    23    11    43 1   
    24    12    13 1   
    25    12    44 1   
    26    13    14 1   
    27    13    33 1   
    28    14    15 1   
    29    14    45 1   
    30    15    16 1   
    31    15    46 1   
    32    16    17 1   
    33    16    32 1   
    34    17    18 1   
    35    17    30 1   
    36    17    47 1   
    37    18    19 1   
    38    18    47 1   
    39    19    20 1   
    40    19    48 1   
    41    20    21 1   
    42    20    29 1   
    43    20    48 1   
    44    21    22 1   
    45    21    49 1   
    46    22    23 1   
    47    22    50 1   
    48    23    24 1   
    49    23    28 1   
    50    24    25 1   
    51    24    51 1   
    52    24    52 1   
    53    25    26 1   
    54    25    27 1   
    55    26    53 1   
    56    26    54 1   
    57    26    55 1   
    58    27    56 1   
    59    27    57 1   
    60    27    58 1   
    61    28    29 1   
    62    28    59 1   
    63    29    60 1   
    64    30    31 1   
    65    30    61 1   
    66    31    32 1   
    67    32    33 1   
    68    33    62 1   
    69    34    35 1   
    70    35    63 1   
@<TRIPOS>SUBSTRUCTURE
     1 631         1 TEMP              0 ****  ****    0 ROOT
