@<TRIPOS>MOLECULE
molecule
   65    67     1     0     0
SMALL
bcc


@<TRIPOS>ATOM
      1 CX           0.0000     0.0000     0.0000 c          1 632       0.499600
      2 CY           1.5070     0.0000     0.0000 c3         1 632       0.109700
      3 CZ          -0.7320     0.3270    -1.2250 cc         1 632       0.360900
      4 OX          -0.6070    -0.2720     1.0150 o          1 632      -0.464100
      5 N5           1.9950     0.0000     1.3820 ns         1 632      -0.585900
      6 C6           2.0170    -1.2490    -0.7200 c3         1 632      -0.272400
      7 C7           3.5430    -1.1870    -0.8290 c3         1 632      -0.048400
      8 C8           4.0530    -2.4360    -1.5500 c3         1 632       0.205800
      9 N9           5.5130    -2.3770    -1.6550 nu         1 632      -0.858200
     10 C10          6.2010    -3.3970    -2.2690 c2         1 632       0.697100
     11 N11          5.5180    -4.4730    -2.7850 nz         1 632      -0.806600
     12 N12          7.5000    -3.3450    -2.3620 n2         1 632      -0.781100
     13 C13          2.1220     1.1630     2.0510 c          1 632       0.645100
     14 O14          1.8340     2.2090     1.5100 o          1 632      -0.573100
     15 C15          2.6240     1.1630     3.4730 c3         1 632       0.021000
     16 C16         -3.0120     7.5090     8.0240 ca         1 632      -0.114000
     17 C17         -2.8170     7.7230     6.6730 ca         1 632      -0.129000
     18 C18         -1.6220     7.3620     6.0800 ca         1 632      -0.108500
     19 C19         -0.6240     6.7770     6.8370 ca         1 632      -0.120300
     20 C20         -0.8180     6.5620     8.1890 ca         1 632      -0.108500
     21 C21         -2.0110     6.9280     8.7830 ca         1 632      -0.129000
     22 C22          0.6770     6.3790     6.1890 c3         1 632       0.286100
     23 C24          1.6780     4.4010     5.0620 cc         1 632       0.042800
     24 C25          2.8410     5.0970     4.8790 cd         1 632       0.014600
     25 N26          3.8750     4.5200     4.2670 nd         1 632      -0.614300
     26 C27          3.8060     3.2810     3.8260 cc         1 632       0.458800
     27 N28          2.6730     2.5390     3.9730 n          1 632      -0.319300
     28 C29          1.5980     3.0730     4.5920 c          1 632       0.691700
     29 O30          0.5760     2.4210     4.7360 o          1 632      -0.646500
     30 C32          6.3570     3.9630     3.1090 c3         1 632       0.010000
     31 N33         -0.2610     0.6560    -2.4250 nd         1 632      -0.694000
     32 C34         -1.0880     0.9100    -3.4010 cd         1 632       0.325200
     33 C35         -2.4360     0.8520    -3.1830 cc         1 632      -0.154400
     34 S36         -2.4940     0.4020    -1.5060 ss         1 632      -0.101300
     35 HY           1.8680     0.8840    -0.5110 h1         1 632       0.095700
     36 HN5          2.1880    -0.8660     1.8440 hn         1 632       0.326500
     37 H61          2.1370    -0.2720    -1.1720 hc         1 632       0.119700
     38 H62          1.4260    -1.7780    -1.4580 hc         1 632       0.119700
     39 H71          3.9740    -1.1420     0.1640 hc         1 632       0.062700
     40 H72          3.8290    -0.3050    -1.3880 hc         1 632       0.062700
     41 H81          3.6210    -2.4820    -2.5430 h1         1 632       0.043700
     42 H82          3.7660    -3.3190    -0.9910 h1         1 632       0.043700
     43 HN9          6.0120    -1.5990    -1.2690 hn         1 632       0.512800
     44 H111         4.8780    -4.1570    -3.4870 hn         1 632       0.467800
     45 H112         6.1670    -5.1160    -3.1920 hn         1 632       0.467800
     46 H12          8.0010    -4.0870    -2.8090 hn         1 632       0.441400
     47 H151         1.9550     0.5770     4.0910 h1         1 632       0.095200
     48 H152         3.6170     0.7320     3.5050 h1         1 632       0.095200
     49 H18         -1.4700     7.5300     5.0210 ha         1 632       0.134500
     50 H20         -0.0350     6.1060     8.7830 ha         1 632       0.134500
     51 H21         -2.1640     6.7600     9.8420 ha         1 632       0.134500
     52 H221         0.8820     7.0390     5.3550 h1         1 632       0.045200
     53 H222         1.4790     6.4530     6.9140 h1         1 632       0.045200
     54 H25          2.9220     6.1170     5.2340 h4         1 632       0.172000
     55 H321         6.0140     4.8720     2.6290 h1         1 632       0.076033
     56 H322         7.2910     3.6480     2.6600 h1         1 632       0.076033
     57 H323         6.5080     4.1480     4.1660 h1         1 632       0.076033
     58 H34         -0.7070     1.1750    -4.3800 h4         1 632       0.042100
     59 H35         -3.2510     1.0340    -3.8730 h4         1 632       0.209000
     60 N23          0.5800     4.9990     5.7070 nu         1 632      -0.793000
     61 H16         -3.9480     7.7930     8.4890 ha         1 632       0.135000
     62 H23         -0.2670     4.4820     5.8350 hn         1 632       0.464800
     63 H113         5.0120    -4.9310    -2.0520 hn         1 632       0.467800
     64 S31          5.2050     2.5700     3.0240 ss         1 632      -0.252300
     65 H17         -3.6000     8.1800     6.0790 ha         1 632       0.134500
@<TRIPOS>BOND
     1     1     2 1
     2     1     3 1
     3     1     4 2
     4     2     5 1
     5     2     6 1
     6     2    35 1
     7     3    31 2
     8     3    34 1
     9     5    13 1
    10     5    36 1
    11     6     7 1
    12     6    37 1
    13     6    38 1
    14     7     8 1
    15     7    39 1
    16     7    40 1
    17     8     9 1
    18     8    41 1
    19     8    42 1
    20     9    10 1
    21     9    43 1
    22    10    11 1
    23    10    12 2
    24    11    44 1
    25    11    45 1
    26    12    46 1
    27    13    14 2
    28    13    15 1
    29    15    27 1
    30    15    47 1
    31    15    48 1
    32    16    17 ar
    33    16    21 ar
    34    16    61 1
    35    17    18 ar
    36    17    65 1
    37    18    19 ar
    38    18    49 1
    39    19    20 ar
    40    19    22 1
    41    20    21 ar
    42    20    50 1
    43    21    51 1
    44    22    60 1
    45    22    52 1
    46    22    53 1
    47    60    23 1
    48    60    62 1
    49    23    24 2
    50    23    28 1
    51    24    25 1
    52    24    54 1
    53    25    26 2
    54    26    27 1
    55    26    64 1
    56    27    28 1
    57    28    29 2
    58    64    30 1
    59    30    55 1
    60    30    56 1
    61    30    57 1
    62    31    32 1
    63    32    33 2
    64    32    58 1
    65    33    34 1
    66    33    59 1
    67    63    11 1
@<TRIPOS>SUBSTRUCTURE
     1 632         1 TEMP              0 ****  ****    0 ROOT
