@<TRIPOS>MOLECULE
633
   64    68     1     0     0
SMALL
bcc


@<TRIPOS>ATOM
      1 C4           0.0000     0.0000     0.0000 ca         1 633      -0.420400
      2 C5           1.4070     0.0000     0.0000 ca         1 633       0.323800
      3 C8           0.7170     0.0010    -2.1360 cc         1 633      -0.300100
      4 C13         -2.5720    -0.8680     4.7690 ca         1 633      -0.061000
      5 C15         -4.4870     0.3230     3.9440 ca         1 633      -0.070400
      6 C20         -7.5780     2.3960     7.0540 c3         1 633       0.021900
      7 C24          4.0620     1.0660     2.6380 ca         1 633      -0.085000
      8 C26          6.2200     0.4440     3.4810 ca         1 633       0.011600
      9 C28          4.2510    -0.6250     4.3370 ca         1 633      -0.085000
     10 C1           1.3700    -0.0010     2.3050 ca         1 633       0.747900
     11 N2           0.0430     0.0000     2.3450 nb         1 633      -0.779000
     12 C3          -0.6750    -0.0010     1.2290 ca         1 633       0.747600
     13 N6           2.0460     0.0000     1.1680 nb         1 633      -0.722000
     14 N7           1.8100     0.0010    -1.3080 na         1 633       0.269900
     15 C9          -0.4100     0.0050    -1.4040 cd         1 633      -0.092200
     16 O10         -2.0280     0.0000     1.2750 os         1 633      -0.315400
     17 C11         -2.6250    -0.1110     2.4920 ca         1 633       0.131100
     18 C12         -1.9700    -0.7590     3.5300 ca         1 633      -0.171000
     19 C14         -3.8290    -0.3310     4.9780 ca         1 633      -0.122000
     20 C16         -3.8810     0.4380     2.7010 ca         1 633      -0.154000
     21 C18         -6.0790     1.3830     5.3590 c          1 633       0.557100
     22 C19         -7.4840     1.8570     5.6250 c3         1 633      -0.098400
     23 O21         -5.2350     1.4680     6.2260 o          1 633      -0.628100
     24 N22          2.0730    -0.0000     3.4990 nu         1 633      -0.295300
     25 C23          3.4660     0.1480     3.4910 ca         1 633      -0.020400
     26 C25          5.4350     1.2130     2.6300 ca         1 633      -0.132500
     27 C27          5.6230    -0.4700     4.3380 ca         1 633      -0.132500
     28 N29          7.6110     0.5920     3.4720 nh         1 633      -0.364000
     29 C30          8.2430    -0.3120     4.4450 c3         1 633       0.135300
     30 C31          9.7640    -0.1770     4.3490 c3         1 633       0.153300
     31 N32         10.1470     1.2180     4.6060 n3         1 633      -0.549600
     32 C33          9.5150     2.1230     3.6350 c3         1 633       0.153300
     33 C34          7.9940     1.9870     3.7310 c3         1 633       0.135300
     34 C35         11.6070     1.3730     4.5980 c3         1 633       0.189100
     35 H1           0.7560    -0.0010    -3.2190 h4         1 633       0.145000
     36 H2          -2.0600    -1.3760     5.5770 ha         1 633       0.102000
     37 H3          -6.8480     3.1850     7.1910 hc         1 633       0.009367
     38 H4          -8.5720     2.7900     7.2270 hc         1 633       0.009367
     39 H5          -7.3800     1.5950     7.7560 hc         1 633       0.009367
     40 H6           3.4500     1.6670     1.9760 ha         1 633       0.113500
     41 H7           3.7850    -1.3400     5.0050 ha         1 633       0.113500
     42 H8           2.7630    -0.0020    -1.6150 hn         1 633       0.120700
     43 H9          -1.4250     0.0070    -1.7810 ha         1 633       0.132000
     44 H10         -0.9860    -1.1810     3.3690 ha         1 633       0.156000
     45 H11         -4.3000    -0.4190     5.9500 ha         1 633       0.138000
     46 H12         -4.3920     0.9470     1.8930 ha         1 633       0.115000
     47 H13         -6.4400     0.8460     3.4230 hn         1 633       0.166500
     48 H14         -8.1740     1.0300     5.5050 hc         1 633       0.024700
     49 H15         -7.7390     2.6440     4.9250 hc         1 633       0.024700
     50 H16          1.5830    -0.0800     4.3680 hn         1 633       0.293800
     51 H17          5.9000     1.9280     1.9630 ha         1 633       0.117000
     52 H18          6.2350    -1.0710     4.9990 ha         1 633       0.117000
     53 H19          7.9570    -1.3340     4.2240 h1         1 633       0.024200
     54 H20          7.9200    -0.0490     5.4450 h1         1 633       0.024200
     55 H21         10.0890    -0.4620     3.3560 h1         1 633       0.014450
     56 H22         10.2300    -0.8200     5.0860 h1         1 633       0.014450
     57 H24          9.8380     1.8600     2.6350 h1         1 633       0.014450
     58 H25          9.8000     3.1440     3.8560 h1         1 633       0.014450
     59 H26          7.5290     2.6310     2.9950 h1         1 633       0.024200
     60 H27          7.6690     2.2720     4.7240 h1         1 633       0.024200
     61 H28         12.0440     0.7210     5.3450 h1         1 633       0.000367
     62 H29         11.9920     1.1110     3.6200 h1         1 633       0.000367
     63 H30         11.8620     2.4020     4.8230 h1         1 633       0.000367
     64 N17         -5.7590     0.8650     4.1560 ns         1 633      -0.039100
@<TRIPOS>BOND
     1     1     2 ar  
     2     1    12 ar  
     3     1    15 1   
     4     2    13 ar  
     5     2    14 1   
     6     3    14 1   
     7     3    15 2   
     8     3    35 1   
     9     4    18 ar  
    10     4    19 ar  
    11     4    36 1   
    12     5    19 ar  
    13     5    20 ar  
    14     5    64 1   
    15     6    22 1   
    16     6    37 1   
    17     6    38 1   
    18     6    39 1   
    19     7    25 ar  
    20     7    26 ar  
    21     7    40 1   
    22     8    26 ar  
    23     8    27 ar  
    24     8    28 1   
    25     9    25 ar  
    26     9    27 ar  
    27     9    41 1   
    28    10    11 ar  
    29    10    13 ar  
    30    10    24 1   
    31    11    12 ar  
    32    12    16 1   
    33    14    42 1   
    34    15    43 1   
    35    16    17 1   
    36    17    18 ar  
    37    17    20 ar  
    38    18    44 1   
    39    19    45 1   
    40    20    46 1   
    41    21    22 1   
    42    21    23 2   
    43    21    64 1   
    44    22    48 1   
    45    22    49 1   
    46    24    25 1   
    47    24    50 1   
    48    26    51 1   
    49    27    52 1   
    50    28    29 1   
    51    28    33 1   
    52    29    30 1   
    53    29    53 1   
    54    29    54 1   
    55    30    31 1   
    56    30    55 1   
    57    30    56 1   
    58    31    32 1   
    59    31    34 1   
    60    32    33 1   
    61    32    57 1   
    62    32    58 1   
    63    33    59 1   
    64    33    60 1   
    65    34    61 1   
    66    34    62 1   
    67    34    63 1   
    68    47    64 1   
@<TRIPOS>SUBSTRUCTURE
     1 633         1 TEMP              0 ****  ****    0 ROOT
