@<TRIPOS>MOLECULE
634
   47    50     1     0     0
SMALL
bcc


@<TRIPOS>ATOM
      1 C4           0.0000     0.0000     0.0000 ca         1 634      -0.424400
      2 C5           1.4080     0.0000     0.0000 ca         1 634       0.329800
      3 C8           0.7170    -0.0010    -2.1360 cc         1 634      -0.302100
      4 C13         -2.6130     1.0030     4.7250 ca         1 634      -0.046000
      5 C15         -4.4700    -0.3100     3.9600 ca         1 634      -0.071400
      6 C20         -7.8430    -1.0610     5.4490 c3         1 634      -0.099400
      7 C21         -8.6250    -0.2210     6.4600 c3         1 634       0.020900
      8 C24          1.8700     0.1920     5.9480 cc         1 634      -0.291300
      9 C28          0.9930     0.1150     8.3060 c3         1 634       0.028600
     10 C1           1.3690     0.0000     2.3050 ca         1 634       0.746900
     11 N2           0.0420     0.0020     2.3450 nb         1 634      -0.782000
     12 C3          -0.6750     0.0020     1.2280 ca         1 634       0.746600
     13 N6           2.0450     0.0000     1.1690 nb         1 634      -0.739000
     14 N7           1.8110    -0.0010    -1.3070 na         1 634       0.266900
     15 C9          -0.4080     0.0050    -1.4050 cd         1 634      -0.088200
     16 O10         -2.0290     0.0030     1.2740 os         1 634      -0.315400
     17 C11         -2.6260     0.1340     2.4880 ca         1 634       0.123100
     18 C12         -2.0040     0.8640     3.4930 ca         1 634      -0.172000
     19 C14         -3.8410     0.4160     4.9620 ca         1 634      -0.121000
     20 C16         -3.8630    -0.4470     2.7190 ca         1 634      -0.160000
     21 C18         -6.5670    -0.3480     5.0820 c          1 634       0.556100
     22 O19         -6.3090     0.7270     5.5810 o          1 634      -0.629100
     23 N22          2.0720     0.0010     3.4990 nu         1 634      -0.240300
     24 C23          1.3830    -0.1220     4.7210 cd         1 634      -0.224700
     25 N25          0.8950    -0.0730     6.8570 na         1 634       0.480400
     26 N26         -0.2200    -0.5570     6.1620 nc         1 634      -0.642800
     27 C27          0.0720    -0.5920     4.8860 cd         1 634       0.382200
     28 H1           0.7560    -0.0050    -3.2190 h4         1 634       0.144000
     29 H2          -2.1250     1.5710     5.5080 ha         1 634       0.108000
     30 H3          -8.4400    -1.2000     4.5560 hc         1 634       0.024700
     31 H4          -7.6130    -2.0260     5.8830 hc         1 634       0.024700
     32 H5          -8.0650    -0.1530     7.3840 hc         1 634       0.009367
     33 H6          -8.7810     0.7740     6.0590 hc         1 634       0.009367
     34 H7          -9.5840    -0.6870     6.6520 hc         1 634       0.009367
     35 H8           2.8900     0.4780     6.1740 h4         1 634       0.146000
     36 H9           1.1590     1.1630     8.5240 h1         1 634       0.019367
     37 H10          0.0720    -0.2090     8.7750 h1         1 634       0.019367
     38 H11          1.8190    -0.4690     8.6920 h1         1 634       0.019367
     39 H12          2.7630    -0.0050    -1.6140 hn         1 634       0.118700
     40 H13         -1.4240     0.0060    -1.7820 ha         1 634       0.132000
     41 H14         -1.0420     1.3250     3.3090 ha         1 634       0.153000
     42 H15         -4.3140     0.5250     5.9300 ha         1 634       0.145000
     43 H16         -4.3520    -1.0130     1.9350 ha         1 634       0.114000
     44 H17         -5.9590    -1.7560     3.7350 hn         1 634       0.165500
     45 H18          3.0700     0.0700     3.4920 hn         1 634       0.284800
     46 H19         -0.5880    -0.9220     4.0930 h4         1 634       0.053100
     47 N17         -5.7130    -0.9050     4.2010 ns         1 634      -0.033100
@<TRIPOS>BOND
     1     1     2 ar  
     2     1    12 ar  
     3     1    15 1   
     4     2    13 ar  
     5     2    14 1   
     6     3    14 1   
     7     3    15 2   
     8     3    28 1   
     9     4    18 ar  
    10     4    19 ar  
    11     4    29 1   
    12     5    19 ar  
    13     5    20 ar  
    14     5    47 1   
    15     6     7 1   
    16     6    21 1   
    17     6    30 1   
    18     6    31 1   
    19     7    32 1   
    20     7    33 1   
    21     7    34 1   
    22     8    24 2   
    23     8    25 1   
    24     8    35 1   
    25     9    25 1   
    26     9    36 1   
    27     9    37 1   
    28     9    38 1   
    29    10    11 ar  
    30    10    13 ar  
    31    10    23 1   
    32    11    12 ar  
    33    12    16 1   
    34    14    39 1   
    35    15    40 1   
    36    16    17 1   
    37    17    18 ar  
    38    17    20 ar  
    39    18    41 1   
    40    19    42 1   
    41    20    43 1   
    42    21    22 2   
    43    21    47 1   
    44    23    24 1   
    45    23    45 1   
    46    24    27 1   
    47    25    26 1   
    48    26    27 2   
    49    27    46 1   
    50    44    47 1   
@<TRIPOS>SUBSTRUCTURE
     1 634         1 TEMP              0 ****  ****    0 ROOT
