@<TRIPOS>MOLECULE
molecule
   47    50     1     0     0
SMALL
bcc


@<TRIPOS>ATOM
      1 C4           0.0000     0.0000     0.0000 ca         1 634      -0.404400
      2 C5           1.4080     0.0000     0.0000 ca         1 634       0.557800
      3 C8           0.7170    -0.0010    -2.1360 cc         1 634      -0.128100
      4 C13         -2.6130     1.0030     4.7250 ca         1 634      -0.087000
      5 C15         -4.4700    -0.3100     3.9600 ca         1 634       0.068600
      6 C20         -7.8430    -1.0610     5.4490 c3         1 634      -0.160400
      7 C21         -8.6250    -0.2210     6.4600 c3         1 634      -0.077100
      8 C24          1.8700     0.1920     5.9480 cd         1 634      -0.160300
      9 C28          0.9930     0.1150     8.3060 c3         1 634       0.071600
     10 C1           1.3690     0.0000     2.3050 ca         1 634       0.994900
     11 N2           0.0420     0.0020     2.3450 nb         1 634      -0.878000
     12 C3          -0.6750     0.0020     1.2280 ca         1 634       0.766600
     13 N6           2.0450     0.0000     1.1690 nb         1 634      -0.850000
     14 N7           1.8110    -0.0010    -1.3070 na         1 634      -0.275100
     15 C9          -0.4080     0.0050    -1.4050 cd         1 634      -0.140200
     16 O10         -2.0290     0.0030     1.2740 os         1 634      -0.334400
     17 C11         -2.6260     0.1340     2.4880 ca         1 634       0.111100
     18 C12         -2.0040     0.8640     3.4930 ca         1 634      -0.167000
     19 C14         -3.8410     0.4160     4.9620 ca         1 634      -0.138000
     20 C16         -3.8630    -0.4470     2.7190 ca         1 634      -0.176000
     21 C18         -6.5670    -0.3480     5.0820 c          1 634       0.657100
     22 O19         -6.3090     0.7270     5.5810 o          1 634      -0.590100
     23 N22          2.0720     0.0010     3.4990 nu         1 634      -0.729300
     24 C23          1.3830    -0.1220     4.7210 cc         1 634      -0.056700
     25 N25          0.8950    -0.0730     6.8570 na         1 634       0.056400
     26 N26         -0.2200    -0.5570     6.1620 nd         1 634      -0.508800
     27 C27          0.0720    -0.5920     4.8860 cc         1 634       0.342200
     28 H1           0.7560    -0.0050    -3.2190 h4         1 634       0.172000
     29 H2          -2.1250     1.5710     5.5080 ha         1 634       0.143000
     30 H3          -8.4400    -1.2000     4.5560 hc         1 634       0.059700
     31 H4          -7.6130    -2.0260     5.8830 hc         1 634       0.059700
     32 H5          -8.0650    -0.1530     7.3840 hc         1 634       0.045033
     33 H6          -8.7810     0.7740     6.0590 hc         1 634       0.045033
     34 H7          -9.5840    -0.6870     6.6520 hc         1 634       0.045033
     35 H8           2.8900     0.4780     6.1740 h4         1 634       0.168000
     36 H9           1.1590     1.1630     8.5240 h1         1 634       0.052700
     37 H10          0.0720    -0.2090     8.7750 h1         1 634       0.052700
     38 H11          1.8190    -0.4690     8.6920 h1         1 634       0.052700
     39 H12          2.7630    -0.0050    -1.6140 hn         1 634       0.306700
     40 H13         -1.4240     0.0060    -1.7820 ha         1 634       0.163000
     41 H14         -1.0420     1.3250     3.3090 ha         1 634       0.171000
     42 H15         -4.3140     0.5250     5.9300 ha         1 634       0.164000
     43 H16         -4.3520    -1.0130     1.9350 ha         1 634       0.138000
     44 H17         -5.9590    -1.7560     3.7350 hn         1 634       0.323500
     45 H18          3.0700     0.0700     3.4920 hn         1 634       0.465800
     46 H19         -0.5880    -0.9220     4.0930 h4         1 634       0.087100
     47 N17         -5.7130    -0.9050     4.2010 ns         1 634      -0.476100
@<TRIPOS>BOND
     1    14     3 1   
     2    14     2 1   
     3     3    15 2   
     4    18     4 ar  
     5    18    17 ar  
     6     2    13 ar  
     7     2     1 ar  
     8    13    10 ar  
     9    15     1 1   
    10     1    12 ar  
    11    10    23 1   
    12    10    11 ar  
    13    23    24 1   
    14    12    11 ar  
    15    12    16 1   
    16     4    19 ar  
    17    24    27 1   
    18    24     8 2   
    19    16    17 1   
    20    27    26 2   
    21     8    25 1   
    22    26    25 1   
    23    25     9 1   
    24    17    20 ar  
    25    19     5 ar  
    26    20     5 ar  
    27     5    47 1   
    28    47    21 1   
    29    22    21 2   
    30    21     6 1   
    31     6     7 1   
    32     3    28 1   
    33     4    29 1   
    34     6    30 1   
    35     6    31 1   
    36     7    32 1   
    37     7    33 1   
    38     7    34 1   
    39     8    35 1   
    40     9    36 1   
    41     9    37 1   
    42     9    38 1   
    43    14    39 1   
    44    15    40 1   
    45    18    41 1   
    46    19    42 1   
    47    20    43 1   
    48    47    44 1   
    49    23    45 1   
    50    27    46 1   
@<TRIPOS>SUBSTRUCTURE
     1 634         1 TEMP              0 ****  ****    0 ROOT
