@<TRIPOS>MOLECULE
635
   79    83     1     0     0
SMALL
bcc


@<TRIPOS>ATOM
      1 C1           0.0000     0.0000     0.0000 c3         1 635      -0.014100
      2 F1           0.1360     8.5380    -1.0340 f          1 635      -0.130900
      3 N1           5.4500     3.3200    -3.2520 n          1 635      -0.061000
      4 O1           2.0130     1.1860    -0.6840 os         1 635      -0.412900
      5 C2           1.5300     0.0000     0.0000 c3         1 635       0.182100
      6 N2           2.4230     4.2100    -1.0480 na         1 635       0.397600
      7 O2           3.8100     0.0350    -1.3030 o          1 635      -0.583000
      8 C3           2.0400     0.0000     1.4430 c3         1 635      -0.014100
      9 N3           9.3950     3.0780     7.0840 n3         1 635      -0.537600
     10 O3           6.9470     4.9540    -3.1130 o          1 635      -0.635100
     11 C4           3.1980     1.0850    -1.3200 c          1 635       0.719300
     12 O4           8.0730     2.2690     2.4730 os         1 635      -0.302900
     13 C5           3.7480     2.2440    -2.0330 ce         1 635      -0.116200
     14 O5          11.0620     2.7120     9.3150 os         1 635      -0.411600
     15 C6           4.9510     2.1780    -2.6900 c2         1 635      -0.020400
     16 C7           4.9710     3.8570    -4.5260 c3         1 635       0.051000
     17 C8           3.4370     3.8170    -4.5610 c3         1 635       0.012200
     18 C9           2.9030     4.2640    -3.2260 cd         1 635      -0.119400
     19 C10          3.0310     3.5420    -2.0770 cc         1 635      -0.211100
     20 C11          1.9010     5.4020    -1.5120 ca         1 635      -0.208200
     21 C12          2.1830     5.4830    -2.8910 ca         1 635      -0.092800
     22 C13          1.7670     6.6000    -3.6200 ca         1 635      -0.035000
     23 C14          1.0890     7.6080    -2.9950 ca         1 635      -0.157000
     24 C15          0.8080     7.5320    -1.6360 ca         1 635       0.121900
     25 C16          1.2090     6.4380    -0.8960 ca         1 635      -0.138000
     26 C17          2.9250     4.7540    -5.6570 c3         1 635      -0.010600
     27 C18          2.9690     2.3880    -4.8480 c3         1 635      -0.010600
     28 C20          6.8590     3.5320    -1.2640 ca         1 635      -0.203600
     29 C21          7.0360     2.1690    -1.0090 ca         1 635      -0.021500
     30 C22          7.4420     1.7520     0.2390 ca         1 635      -0.187500
     31 C23          7.6750     2.6840     1.2440 ca         1 635       0.172100
     32 C24          7.4980     4.0400     0.9940 ca         1 635      -0.187500
     33 C25          7.0990     4.4660    -0.2530 ca         1 635      -0.021500
     34 C26          8.2940     3.2800     3.4590 c3         1 635       0.203400
     35 C27          8.7350     2.6250     4.7700 c3         1 635      -0.044400
     36 C28          8.9710     3.7070     5.8260 c3         1 635       0.160800
     37 C29          9.4030     4.0540     8.1840 c3         1 635       0.107800
     38 C30          9.7920     3.3460     9.4840 c3         1 635       0.214900
     39 C31         11.0900     1.7550     8.2520 c3         1 635       0.214900
     40 C32         10.7160     2.4460     6.9390 c3         1 635       0.107800
     41 H1          -0.3610     0.8640     0.5440 hc         1 635       0.013533
     42 H1A         -0.3610    -0.9030     0.4770 hc         1 635       0.013533
     43 H1B         -0.3610     0.0390    -1.0210 hc         1 635       0.013533
     44 H2           1.8910    -0.8840    -0.5110 h1         1 635       0.039700
     45 HN2          2.3670     3.8850    -0.1030 hn         1 635       0.121700
     46 H3           1.5100    -0.7540     2.0130 hc         1 635       0.013533
     47 H3A          3.1000    -0.2200     1.4510 hc         1 635       0.013533
     48 H3B          1.8690     0.9740     1.8860 hc         1 635       0.013533
     49 H6           5.3720     1.2160    -2.9530 h4         1 635       0.133000
     50 H7           5.3050     4.8820    -4.6310 h1         1 635       0.043700
     51 H7A          5.3640     3.2590    -5.3390 h1         1 635       0.043700
     52 H13          1.9820     6.6670    -4.6790 ha         1 635       0.120000
     53 H14          0.7690     8.4740    -3.5630 ha         1 635       0.119000
     54 H16          0.9190     6.3520     0.1450 ha         1 635       0.116000
     55 H17          3.3390     5.7450    -5.5070 hc         1 635       0.014033
     56 H17A         1.8440     4.8040    -5.6140 hc         1 635       0.014033
     57 H17B         3.2310     4.3780    -6.6260 hc         1 635       0.014033
     58 H18          2.6610     2.3100    -5.8830 hc         1 635       0.014033
     59 H18A         3.7820     1.6970    -4.6600 hc         1 635       0.014033
     60 H18B         2.1330     2.1460    -4.2030 hc         1 635       0.014033
     61 H21          6.8550     1.4420    -1.7910 ha         1 635       0.118000
     62 H22          7.5800     0.6970     0.4380 ha         1 635       0.123000
     63 H24          7.6840     4.7630     1.7780 ha         1 635       0.123000
     64 H25          6.9610     5.5230    -0.4470 ha         1 635       0.118000
     65 H26          9.0670     3.9570     3.1160 h1         1 635       0.002700
     66 H26A         7.3760     3.8320     3.6220 h1         1 635       0.002700
     67 H27          9.6530     2.0730     4.6070 hc         1 635       0.033700
     68 H27A         7.9620     1.9480     5.1130 hc         1 635       0.033700
     69 H28          8.0530     4.2590     5.9890 h1         1 635       0.009700
     70 H28A         9.7430     4.3840     5.4820 h1         1 635       0.009700
     71 H29         10.1240     4.8340     7.9680 h1         1 635       0.018950
     72 H29A         8.4150     4.4860     8.2890 h1         1 635       0.018950
     73 H30          9.0450     2.5990     9.7250 h1         1 635       0.012950
     74 H30A         9.8550     4.0720    10.2850 h1         1 635       0.012950
     75 H31         10.3780     0.9650     8.4600 h1         1 635       0.012950
     76 H31A        12.0860     1.3380     8.1690 h1         1 635       0.012950
     77 H32         11.4540     3.2040     6.7070 h1         1 635       0.018950
     78 H32A        10.6790     1.7130     6.1430 h1         1 635       0.018950
     79 C19          6.4250     3.9830    -2.6000 c          1 635       0.616700
@<TRIPOS>BOND
     1     1     5 1   
     2     1    41 1   
     3     1    42 1   
     4     1    43 1   
     5     2    24 1   
     6     3    15 1   
     7     3    16 1   
     8     3    79 1   
     9     4     5 1   
    10     4    11 1   
    11     5     8 1   
    12     5    44 1   
    13     6    19 1   
    14     6    20 1   
    15     6    45 1   
    16     7    11 2   
    17     8    46 1   
    18     8    47 1   
    19     8    48 1   
    20     9    36 1   
    21     9    37 1   
    22     9    40 1   
    23    10    79 2   
    24    11    13 1   
    25    12    31 1   
    26    12    34 1   
    27    13    15 2   
    28    13    19 1   
    29    14    38 1   
    30    14    39 1   
    31    15    49 1   
    32    16    17 1   
    33    16    50 1   
    34    16    51 1   
    35    17    18 1   
    36    17    26 1   
    37    17    27 1   
    38    18    19 2   
    39    18    21 1   
    40    20    21 ar  
    41    20    25 ar  
    42    21    22 ar  
    43    22    23 ar  
    44    22    52 1   
    45    23    24 ar  
    46    23    53 1   
    47    24    25 ar  
    48    25    54 1   
    49    26    55 1   
    50    26    56 1   
    51    26    57 1   
    52    27    58 1   
    53    27    59 1   
    54    27    60 1   
    55    28    29 ar  
    56    28    33 ar  
    57    28    79 1   
    58    29    30 ar  
    59    29    61 1   
    60    30    31 ar  
    61    30    62 1   
    62    31    32 ar  
    63    32    33 ar  
    64    32    63 1   
    65    33    64 1   
    66    34    35 1   
    67    34    65 1   
    68    34    66 1   
    69    35    36 1   
    70    35    67 1   
    71    35    68 1   
    72    36    69 1   
    73    36    70 1   
    74    37    38 1   
    75    37    71 1   
    76    37    72 1   
    77    38    73 1   
    78    38    74 1   
    79    39    40 1   
    80    39    75 1   
    81    39    76 1   
    82    40    77 1   
    83    40    78 1   
@<TRIPOS>SUBSTRUCTURE
     1 635         1 TEMP              0 ****  ****    0 ROOT
