@<TRIPOS>MOLECULE
molecule
   79    83     1     0     0
SMALL
bcc


@<TRIPOS>ATOM
      1 C1           0.0000     0.0000     0.0000 c3         1 635      -0.103600
      2 F1           0.1360     8.5380    -1.0340 f          1 635      -0.141900
      3 N1           5.4500     3.3200    -3.2520 n          1 635      -0.426000
      4 O1           2.0130     1.1860    -0.6840 os         1 635      -0.423900
      5 C2           1.5300     0.0000     0.0000 c3         1 635       0.144100
      6 N2           2.4230     4.2100    -1.0480 na         1 635      -0.155400
      7 O2           3.8100     0.0350    -1.3030 o          1 635      -0.553000
      8 C3           2.0400     0.0000     1.4430 c3         1 635      -0.103600
      9 N3           9.3950     3.0780     7.0840 n3         1 635      -0.726600
     10 O3           6.9470     4.9540    -3.1130 o          1 635      -0.588100
     11 C4           3.1980     1.0850    -1.3200 c          1 635       0.653300
     12 O4           8.0730     2.2690     2.4730 os         1 635      -0.325900
     13 C5           3.7480     2.2440    -2.0330 ce         1 635      -0.134200
     14 O5          11.0620     2.7120     9.3150 os         1 635      -0.423600
     15 C6           4.9510     2.1780    -2.6900 c2         1 635       0.088600
     16 C7           4.9710     3.8570    -4.5260 c3         1 635       0.123000
     17 C8           3.4370     3.8170    -4.5610 c3         1 635      -0.009800
     18 C9           2.9030     4.2640    -3.2260 cd         1 635      -0.118400
     19 C10          3.0310     3.5420    -2.0770 cc         1 635      -0.007100
     20 C11          1.9010     5.4020    -1.5120 ca         1 635      -0.011200
     21 C12          2.1830     5.4830    -2.8910 ca         1 635      -0.103800
     22 C13          1.7670     6.6000    -3.6200 ca         1 635      -0.060000
     23 C14          1.0890     7.6080    -2.9950 ca         1 635      -0.192000
     24 C15          0.8080     7.5320    -1.6360 ca         1 635       0.152900
     25 C16          1.2090     6.4380    -0.8960 ca         1 635      -0.188000
     26 C17          2.9250     4.7540    -5.6570 c3         1 635      -0.086100
     27 C18          2.9690     2.3880    -4.8480 c3         1 635      -0.086100
     28 C20          6.8590     3.5320    -1.2640 ca         1 635      -0.190600
     29 C21          7.0360     2.1690    -1.0090 ca         1 635      -0.050000
     30 C22          7.4420     1.7520     0.2390 ca         1 635      -0.199500
     31 C23          7.6750     2.6840     1.2440 ca         1 635       0.164100
     32 C24          7.4980     4.0400     0.9940 ca         1 635      -0.199500
     33 C25          7.0990     4.4660    -0.2530 ca         1 635      -0.050000
     34 C26          8.2940     3.2800     3.4590 c3         1 635       0.135400
     35 C27          8.7350     2.6250     4.7700 c3         1 635      -0.084400
     36 C28          8.9710     3.7070     5.8260 c3         1 635       0.164800
     37 C29          9.4030     4.0540     8.1840 c3         1 635       0.122300
     38 C30          9.7920     3.3460     9.4840 c3         1 635       0.139400
     39 C31         11.0900     1.7550     8.2520 c3         1 635       0.139400
     40 C32         10.7160     2.4460     6.9390 c3         1 635       0.122300
     41 H1          -0.3610     0.8640     0.5440 hc         1 635       0.047700
     42 H1A         -0.3610    -0.9030     0.4770 hc         1 635       0.047700
     43 H1B         -0.3610     0.0390    -1.0210 hc         1 635       0.047700
     44 H2           1.8910    -0.8840    -0.5110 h1         1 635       0.072700
     45 HN2          2.3670     3.8850    -0.1030 hn         1 635       0.307700
     46 H3           1.5100    -0.7540     2.0130 hc         1 635       0.047700
     47 H3A          3.1000    -0.2200     1.4510 hc         1 635       0.047700
     48 H3B          1.8690     0.9740     1.8860 hc         1 635       0.047700
     49 H6           5.3720     1.2160    -2.9530 h4         1 635       0.161000
     50 H7           5.3050     4.8820    -4.6310 h1         1 635       0.070200
     51 H7A          5.3640     3.2590    -5.3390 h1         1 635       0.070200
     52 H13          1.9820     6.6670    -4.6790 ha         1 635       0.143000
     53 H14          0.7690     8.4740    -3.5630 ha         1 635       0.144000
     54 H16          0.9190     6.3520     0.1450 ha         1 635       0.141000
     55 H17          3.3390     5.7450    -5.5070 hc         1 635       0.042033
     56 H17A         1.8440     4.8040    -5.6140 hc         1 635       0.042033
     57 H17B         3.2310     4.3780    -6.6260 hc         1 635       0.042033
     58 H18          2.6610     2.3100    -5.8830 hc         1 635       0.042033
     59 H18A         3.7820     1.6970    -4.6600 hc         1 635       0.042033
     60 H18B         2.1330     2.1460    -4.2030 hc         1 635       0.042033
     61 H21          6.8550     1.4420    -1.7910 ha         1 635       0.147500
     62 H22          7.5800     0.6970     0.4380 ha         1 635       0.145500
     63 H24          7.6840     4.7630     1.7780 ha         1 635       0.145500
     64 H25          6.9610     5.5230    -0.4470 ha         1 635       0.147500
     65 H26          9.0670     3.9570     3.1160 h1         1 635       0.037200
     66 H26A         7.3760     3.8320     3.6220 h1         1 635       0.037200
     67 H27          9.6530     2.0730     4.6070 hc         1 635       0.064200
     68 H27A         7.9620     1.9480     5.1130 hc         1 635       0.064200
     69 H28          8.0530     4.2590     5.9890 h1         1 635       0.035700
     70 H28A         9.7430     4.3840     5.4820 h1         1 635       0.035700
     71 H29         10.1240     4.8340     7.9680 h1         1 635       0.043950
     72 H29A         8.4150     4.4860     8.2890 h1         1 635       0.043950
     73 H30          9.0450     2.5990     9.7250 h1         1 635       0.054200
     74 H30A         9.8550     4.0720    10.2850 h1         1 635       0.054200
     75 H31         10.3780     0.9650     8.4600 h1         1 635       0.054200
     76 H31A        12.0860     1.3380     8.1690 h1         1 635       0.054200
     77 H32         11.4540     3.2040     6.7070 h1         1 635       0.043950
     78 H32A        10.6790     1.7130     6.1430 h1         1 635       0.043950
     79 C19          6.4250     3.9830    -2.6000 c          1 635       0.689700
@<TRIPOS>BOND
     1     1     5 1   
     2     2    24 1   
     3     3    15 1   
     4     3    16 1   
     5     3    79 1   
     6     4     5 1   
     7     4    11 1   
     8     5     8 1   
     9     6    19 1   
    10     6    20 1   
    11     7    11 2   
    12     9    36 1   
    13     9    37 1   
    14     9    40 1   
    15    10    79 2   
    16    11    13 1   
    17    12    31 1   
    18    12    34 1   
    19    13    15 2   
    20    13    19 1   
    21    14    38 1   
    22    14    39 1   
    23    16    17 1   
    24    17    18 1   
    25    17    26 1   
    26    17    27 1   
    27    18    19 2   
    28    18    21 1   
    29    20    21 ar  
    30    20    25 ar  
    31    21    22 ar  
    32    22    23 ar  
    33    23    24 ar  
    34    24    25 ar  
    35    79    28 1   
    36    28    29 ar  
    37    28    33 ar  
    38    29    30 ar  
    39    30    31 ar  
    40    31    32 ar  
    41    32    33 ar  
    42    34    35 1   
    43    35    36 1   
    44    37    38 1   
    45    39    40 1   
    46     1    41 1   
    47     1    42 1   
    48     1    43 1   
    49     5    44 1   
    50     6    45 1   
    51     8    46 1   
    52     8    47 1   
    53     8    48 1   
    54    15    49 1   
    55    16    50 1   
    56    16    51 1   
    57    22    52 1   
    58    23    53 1   
    59    25    54 1   
    60    26    55 1   
    61    26    56 1   
    62    26    57 1   
    63    27    58 1   
    64    27    59 1   
    65    27    60 1   
    66    29    61 1   
    67    30    62 1   
    68    32    63 1   
    69    33    64 1   
    70    34    65 1   
    71    34    66 1   
    72    35    67 1   
    73    35    68 1   
    74    36    69 1   
    75    36    70 1   
    76    37    71 1   
    77    37    72 1   
    78    38    73 1   
    79    38    74 1   
    80    39    75 1   
    81    39    76 1   
    82    40    77 1   
    83    40    78 1   
@<TRIPOS>SUBSTRUCTURE
     1 635         1 TEMP              0 ****  ****    0 ROOT
