@<TRIPOS>MOLECULE
molecule
   34    35     1     0     0
SMALL
bcc


@<TRIPOS>ATOM
      1 OX1          0.0000     0.0000     0.0000 o          1 636      -0.852800
      2 CX0          1.3470     0.0000     0.0000 c          1 636       0.917200
      3 OX2          1.9550     0.0000     1.0530 o          1 636      -0.852800
      4 CX1          2.0840     0.0000    -1.2750 ca         1 636      -0.077600
      5 CX6          1.3930     0.0710    -2.4870 ca         1 636      -0.093000
      6 CX5          2.0880     0.0700    -3.6770 ca         1 636      -0.206000
      7 CX4          3.4720     0.0010    -3.6780 ca         1 636      -0.142000
      8 CX3          4.1700    -0.0700    -2.4900 ca         1 636      -0.167300
      9 C3           5.6750    -0.1460    -2.5060 c3         1 636      -0.034800
     10 CX2          3.4870    -0.0640    -1.2810 ca         1 636       0.242600
     11 N1           4.1880    -0.1350    -0.0830 nu         1 636      -0.673000
     12 CY1          5.3240     0.6430     0.1040 ca         1 636       0.201600
     13 CY2          5.2150     2.0400     0.1960 ca         1 636      -0.103600
     14 CY0          3.8970     2.6890     0.0930 c          1 636       0.862200
     15 OY1          2.8880     2.0130     0.0530 o          1 636      -0.809800
     16 OY2          3.8090     4.0330     0.0420 o          1 636      -0.809800
     17 CY6          6.5730     0.0430     0.2090 ca         1 636      -0.187000
     18 CY5          7.6980     0.8180     0.3950 ca         1 636      -0.123300
     19 C5           9.0500     0.1600     0.5070 c3         1 636      -0.031800
     20 CY4          7.5960     2.1980     0.4800 ca         1 636      -0.190000
     21 CY3          6.3660     2.8110     0.3840 ca         1 636      -0.095000
     22 H2           0.3110     0.1250    -2.4920 ha         1 636       0.138000
     23 H3           1.5490     0.1250    -4.6150 ha         1 636       0.080000
     24 H4           4.0090     0.0010    -4.6190 ha         1 636       0.081000
     25 H5           6.0880     0.8230    -2.2520 hc         1 636       0.024700
     26 H6           6.0070    -0.8810    -1.7820 hc         1 636       0.024700
     27 H7           6.0120    -0.4340    -3.4940 hc         1 636       0.024700
     28 H8           3.8880    -0.7640     0.6360 hn         1 636       0.465800
     29 H10          6.6620    -1.0350     0.1530 ha         1 636       0.105000
     30 H11          8.9230    -0.9090     0.6280 hc         1 636       0.016700
     31 H12          9.6230     0.3560    -0.3910 hc         1 636       0.016700
     32 H13          9.5770     0.5600     1.3650 hc         1 636       0.016700
     33 H14          8.4870     2.7960     0.6260 ha         1 636       0.087000
     34 H15          6.2920     3.8900     0.4530 ha         1 636       0.145000
@<TRIPOS>BOND
     1     7     6 ar
     2     7     8 ar
     3     9     8 1
     4     6     5 ar
     5     8    10 ar
     6     5     4 ar
     7    10     4 ar
     8    10    11 1
     9     4     2 1
    10     3     2 1
    11    11    12 1
    12    15    14 1
    13     2     1 1
    14    16    14 1
    15    14    13 1
    16    12    13 ar
    17    12    17 ar
    18    13    21 ar
    19    17    18 ar
    20    21    20 ar
    21    18    20 ar
    22    18    19 1
    23     5    22 1
    24     6    23 1
    25     7    24 1
    26     9    25 1
    27     9    26 1
    28     9    27 1
    29    11    28 1
    30    17    29 1
    31    19    30 1
    32    19    31 1
    33    19    32 1
    34    20    33 1
    35    21    34 1
@<TRIPOS>SUBSTRUCTURE
     1 636         1 TEMP              0 ****  ****    0 ROOT
