@<TRIPOS>MOLECULE
636
   34    35     1     0     0
SMALL
bcc


@<TRIPOS>ATOM
      1 OX1          0.0000     0.0000     0.0000 o          1 636      -0.901300
      2 CX0          1.3470     0.0000     0.0000 c          1 636       1.010200
      3 OX2          1.9550     0.0000     1.0530 o          1 636      -0.901300
      4 CX1          2.0840     0.0000    -1.2750 ca         1 636      -0.075600
      5 CX6          1.3930     0.0710    -2.4870 ca         1 636      -0.065000
      6 CX5          2.0880     0.0700    -3.6770 ca         1 636      -0.193000
      7 CX4          3.4720     0.0010    -3.6780 ca         1 636      -0.123000
      8 CX3          4.1700    -0.0700    -2.4900 ca         1 636      -0.179300
      9 C3           5.6750    -0.1460    -2.5060 c3         1 636       0.044200
     10 CX2          3.4870    -0.0640    -1.2810 ca         1 636       0.101600
     11 N1           4.1880    -0.1350    -0.0830 nu         1 636      -0.236000
     12 CY1          5.3240     0.6430     0.1040 ca         1 636       0.064600
     13 CY2          5.2150     2.0400     0.1960 ca         1 636      -0.101600
     14 CY0          3.8970     2.6890     0.0930 c          1 636       0.943200
     15 OY1          2.8880     2.0130     0.0530 o          1 636      -0.856800
     16 OY2          3.8090     4.0330     0.0420 o          1 636      -0.856800
     17 CY6          6.5730     0.0430     0.2090 ca         1 636      -0.174000
     18 CY5          7.6980     0.8180     0.3950 ca         1 636      -0.134300
     19 C5           9.0500     0.1600     0.5070 c3         1 636       0.078200
     20 CY4          7.5960     2.1980     0.4800 ca         1 636      -0.177000
     21 CY3          6.3660     2.8110     0.3840 ca         1 636      -0.064000
     22 H2           0.3110     0.1250    -2.4920 ha         1 636       0.114000
     23 H3           1.5490     0.1250    -4.6150 ha         1 636       0.065000
     24 H4           4.0090     0.0010    -4.6190 ha         1 636       0.066000
     25 H5           6.0880     0.8230    -2.2520 hc         1 636       0.000033
     26 H6           6.0070    -0.8810    -1.7820 hc         1 636       0.000033
     27 H7           6.0120    -0.4340    -3.4940 hc         1 636       0.000033
     28 H8           3.8880    -0.7640     0.6360 hn         1 636       0.313800
     29 H10          6.6620    -1.0350     0.1530 ha         1 636       0.092000
     30 H11          8.9230    -0.9090     0.6280 hc         1 636      -0.015633
     31 H12          9.6230     0.3560    -0.3910 hc         1 636      -0.015633
     32 H13          9.5770     0.5600     1.3650 hc         1 636      -0.015633
     33 H14          8.4870     2.7960     0.6260 ha         1 636       0.073000
     34 H15          6.2920     3.8900     0.4530 ha         1 636       0.120000
@<TRIPOS>BOND
     1     1     2 1   
     2     2     3 1   
     3     2     4 1   
     4     4     5 ar  
     5     4    10 ar  
     6     5     6 ar  
     7     5    22 1   
     8     6     7 ar  
     9     6    23 1   
    10     7     8 ar  
    11     7    24 1   
    12     8     9 1   
    13     8    10 ar  
    14     9    25 1   
    15     9    26 1   
    16     9    27 1   
    17    10    11 1   
    18    11    12 1   
    19    11    28 1   
    20    12    13 ar  
    21    12    17 ar  
    22    13    14 1   
    23    13    21 ar  
    24    14    15 1   
    25    14    16 1   
    26    17    18 ar  
    27    17    29 1   
    28    18    19 1   
    29    18    20 ar  
    30    19    30 1   
    31    19    31 1   
    32    19    32 1   
    33    20    21 ar  
    34    20    33 1   
    35    21    34 1   
@<TRIPOS>SUBSTRUCTURE
     1 636         1 TEMP              0 ****  ****    0 ROOT
