@<TRIPOS>MOLECULE
637
   62    68     1     0     0
SMALL
bcc


@<TRIPOS>ATOM
      1 C1           0.0000     0.0000     0.0000 c3         1 637       0.057000
      2 C2           1.5410     0.0000     0.0000 c3         1 637       0.007000
      3 O3           2.0410    -1.1750    -0.6430 oh         1 637      -0.274000
      4 C4           1.9210     0.0000     1.5000 c3         1 637       0.005000
      5 O5           3.0240    -0.8740     1.7470 oh         1 637      -0.276000
      6 C6           0.6280    -0.5400     2.1630 DU         1 637       0.124000
      7 C7          -1.9810     4.3420    -3.9170 c3         1 637      -0.066000
      8 N8          -1.2580     3.1880    -1.0910 n2         1 637      -0.073000
      9 C9          -0.8620     2.3650    -0.1640 c2         1 637      -0.182000
     10 N10         -0.4990     1.1750    -0.7180 na         1 637       0.277000
     11 C11         -0.6840     1.2790    -2.0740 c2         1 637      -0.163000
     12 C12         -1.1740     2.5810    -2.3000 c2         1 637      -0.183000
     13 O13         -0.4270     0.0490     1.3720 os         1 637      -0.249000
     14 C14          0.5350    -0.0820     3.5960 c2         1 637      -0.134000
     15 C15         -0.5280     0.5610     4.0110 c2         1 637      -0.126000
     16 C16         -0.6200     1.0180     5.4430 DU         1 637       0.106000
     17 N17         -0.8800     2.4590     5.4800 ns         1 637      -0.069000
     18 C18         -1.0020     3.0920     6.6640 c2         1 637       0.275000
     19 O19         -0.8970     2.4660     7.7010 o          1 637      -0.391000
     20 C20         -1.2640     4.5440     6.7020 ca         1 637      -0.149000
     21 C21         -1.3850     5.2640     5.5130 ca         1 637      -0.079000
     22 C22         -1.6310     6.6300     5.5520 cp         1 637      -0.039000
     23 C23         -1.7570     7.2830     6.7810 ca         1 637      -0.108000
     24 C24         -1.7600     7.3980     4.2890 cq         1 637      -0.043000
     25 C25         -2.0070     8.7690     4.3260 ca         1 637      -0.076000
     26 C26         -2.1250     9.4790     3.1490 ca         1 637      -0.126000
     27 C27         -1.6270     6.7510     3.0630 ca         1 637      -0.076000
     28 C28         -1.7480     7.4680     1.8900 ca         1 637      -0.126000
     29 C29         -1.9980     8.8310     1.9310 ca         1 637       0.071000
     30 F30         -2.1160     9.5300     0.7810 f          1 637      -0.092000
     31 C31         -1.3970     5.2030     7.9300 ca         1 637       0.133000
     32 O32         -1.2860     4.5060     9.0900 oh         1 637      -0.196000
     33 C33         -1.6380     6.5740     7.9610 ca         1 637       0.008000
     34 O34         -1.7620     7.2140     9.1540 oh         1 637      -0.234000
     35 C35         -1.4550     2.9620    -3.6120 c2         1 637       0.059000
     36 N38         -1.2510     2.0880    -4.5820 n2         1 637      -0.117000
     37 C39         -0.7910     0.8760    -4.3290 c2         1 637      -0.026000
     38 N40         -0.5100     0.4690    -3.1100 n2         1 637      -0.093000
     39 H1          -0.3670    -0.9070    -0.4660 h2         1 637       0.111000
     40 H2           1.9170     0.8930    -0.4840 h1         1 637       0.060000
     41 HO3          2.7450    -0.9400    -1.2240 ho         1 637       0.199000
     42 H4           2.1340     1.0060     1.8410 h1         1 637       0.069000
     43 HO5          3.7640    -0.3700     2.0440 ho         1 637       0.190000
     44 H6           0.5920    -1.6210     2.0980 ha         1 637       0.085000
     45 H7          -1.2360     5.0800    -3.6470 hc         1 637       0.061000
     46 H7A         -2.8860     4.5170    -3.3490 hc         1 637       0.061000
     47 H7B         -2.1990     4.4190    -4.9760 hc         1 637       0.061000
     48 H9          -0.8260     2.5940     0.8950 h5         1 637       0.170000
     49 H14          0.0300    -0.9550     3.1980 DU         1 637       0.063000
     50 H15         -0.7730    -0.0860     4.8450 DU         1 637       0.023000
     51 H16         -1.4270     0.4930     5.9390 ha         1 637       0.070500
     52 H16A         0.3130     0.8070     5.9510 ha         1 637       0.070500
     53 HN17        -0.9690     2.9730     4.6260 hn         1 637       0.108000
     54 H21         -1.2870     4.7580     4.5600 ha         1 637       0.115000
     55 H23         -1.9470     8.3490     6.8090 ha         1 637       0.122000
     56 H25         -2.1060     9.2760     5.2780 ha         1 637       0.112500
     57 H26         -2.3190    10.5440     3.1770 ha         1 637       0.122500
     58 H27         -1.4310     5.6860     3.0290 ha         1 637       0.112500
     59 H28         -1.6470     6.9660     0.9350 ha         1 637       0.122500
     60 HO32        -0.5970     4.8790     9.6160 ho         1 637       0.198000
     61 HO34        -1.0310     7.7970     9.2750 ho         1 637       0.196000
     62 H39         -0.6390     0.1920    -5.1560 h5         1 637       0.138000
@<TRIPOS>BOND
     1     1     2 1   
     2     1    10 1   
     3     1    13 1   
     4     1    39 1   
     5     2     3 1   
     6     2     4 1   
     7     2    40 1   
     8     3    41 1   
     9     4     5 1   
    10     4     6 1   
    11     4    42 1   
    12     5    43 1   
    13     6    13 1   
    14     6    14 1   
    15     6    44 1   
    16     6    49 1   
    17     7    35 1   
    18     7    45 1   
    19     7    46 1   
    20     7    47 1   
    21     8     9 1   
    22     8    12 1   
    23     9    10 1   
    24     9    48 1   
    25    10    11 1   
    26    11    12 1   
    27    11    38 1   
    28    12    35 1   
    29    14    15 1   
    30    14    49 1   
    31    15    16 1   
    32    15    50 1   
    33    16    17 1   
    34    16    50 1   
    35    16    51 1   
    36    16    52 1   
    37    17    18 1   
    38    17    53 1   
    39    18    19 1   
    40    18    20 1   
    41    20    21 1   
    42    20    31 1   
    43    21    22 1   
    44    21    54 1   
    45    22    23 1   
    46    22    24 1   
    47    23    33 1   
    48    23    55 1   
    49    24    25 1   
    50    24    27 1   
    51    25    26 1   
    52    25    56 1   
    53    26    29 1   
    54    26    57 1   
    55    27    28 1   
    56    27    58 1   
    57    28    29 1   
    58    28    59 1   
    59    29    30 1   
    60    31    32 1   
    61    31    33 1   
    62    32    60 1   
    63    33    34 1   
    64    34    61 1   
    65    35    36 1   
    66    36    37 1   
    67    37    38 1   
    68    37    62 1   
@<TRIPOS>SUBSTRUCTURE
     1 637         1 TEMP              0 ****  ****    0 ROOT
