@<TRIPOS>MOLECULE
639
   47    51     1     0     0
SMALL
bcc


@<TRIPOS>ATOM
      1 CBD          0.0000     0.0000     0.0000 ca         1 639      -0.157000
      2 CBC         -4.5160     2.4070    -6.2490 c2         1 639      -0.058000
      3 NAW         -4.8840     1.6720    -3.8480 nu         1 639      -0.373000
      4 CAG          2.0820     0.0000     1.1920 ca         1 639      -0.048500
      5 CAK         -5.0850     3.1540    -7.2580 ca         1 639      -0.024000
      6 NAT         -2.3430     1.4070    -0.2880 n2         1 639      -0.187000
      7 CBE         -1.9000     0.6750    -1.3080 c2         1 639       0.014000
      8 CAZ         -5.9280     4.2000    -6.9140 ca         1 639      -0.049000
      9 NAS         -2.6180     0.5880    -2.4230 n2         1 639      -0.151000
     10 CBF         -3.7760     1.2350    -2.5140 c2         1 639       0.100000
     11 CAJ         -6.2790     4.6030    -5.7950 c2         1 639      -0.102000
     12 NAV         -0.6950     0.0060    -1.2070 nu         1 639       0.177000
     13 NAU         -4.2110     1.9650    -1.4910 n2         1 639      -0.182000
     14 CBB         -5.6580     3.7860    -4.6500 c2         1 639      -0.010000
     15 NAD          2.6510    -0.0520     4.6340 n1         1 639      -0.051000
     16 CBG         -3.4950     2.0470    -0.3830 c2         1 639       0.031000
     17 CBH         -4.8840     2.8260    -4.9580 c3         1 639       0.093000
     18 CCA         -4.6410     2.6440    -8.6790 ca         1 639      -0.050000
     19 CCB         -5.1860     3.3630    -9.7270 ca         1 639      -0.099000
     20 CCC         -6.0870     4.4750    -9.2070 ca         1 639       0.143000
     21 CAA         -6.5700     5.0440    -8.0860 ca         1 639      -0.102000
     22 CCD         -6.4770     5.4220   -10.6700 c1         1 639      -0.214000
     23 CAC         -4.3590     1.0850    -6.5450 c3         1 639      -0.128000
     24 CAI          1.3910     0.0000     0.0000 ca         1 639      -0.090000
     25 CBA          1.3830    -0.0110     2.4010 ca         1 639       0.035000
     26 CAH         -0.6980    -0.0010     1.2030 ca         1 639      -0.090000
     27 CAF         -0.0150    -0.0050     2.3990 ca         1 639      -0.048500
     28 CAE          2.0980    -0.0270     3.6420 c1         1 639      -0.101000
     29 H1          -4.4230     2.2390    -4.5310 DU         1 639       0.215000
     30 H2           3.1420    -0.1510     1.3520 ha         1 639       0.117500
     31 H3          -6.7510     5.5620    -5.6130 ha         1 639       0.141000
     32 H4          -0.5360    -0.9580    -1.4240 hn         1 639       0.081000
     33 H5          -4.0240     2.5420     0.4220 h5         1 639       0.144000
     34 H6          -4.0140     1.8340    -9.0320 ha         1 639       0.134000
     35 H7          -5.0460     3.6110   -10.7720 ha         1 639       0.162000
     36 H8          -7.0800     5.9420    -7.7610 ha         1 639       0.164000
     37 H9          -7.1290     4.1870    -3.2970 hc         1 639       0.062667
     38 H10         -5.4780     4.6770    -2.7380 hc         1 639       0.062667
     39 H11         -6.1340     5.6710    -3.5640 hc         1 639       0.062667
     40 H12         -3.3670     1.0030    -6.9740 hc         1 639       0.074333
     41 H13         -4.4570     0.3460    -5.7580 hc         1 639       0.074333
     42 H14         -4.7220     0.6060    -7.4460 hc         1 639       0.074333
     43 H15          1.6330    -0.4650    -0.9480 ha         1 639       0.115500
     44 H16         -1.6090    -0.4980     0.8920 ha         1 639       0.115500
     45 H17         -0.7120    -0.3190     3.1660 ha         1 639       0.117500
     46 CAB         -6.1620     4.5880    -3.5740 c3         1 639      -0.085000
     47 NAB         -7.1020     6.0230   -11.5790 n1         1 639      -0.113000
@<TRIPOS>BOND
     1     1    12 1   
     2     1    24 1   
     3     1    26 1   
     4     2     5 1   
     5     2    17 1   
     6     2    23 1   
     7     3    10 1   
     8     3    17 1   
     9     3    29 1   
    10     4    24 1   
    11     4    25 1   
    12     4    30 1   
    13     5     8 1   
    14     5    18 1   
    15     6     7 1   
    16     6    16 1   
    17     7     9 1   
    18     7    12 1   
    19     8    11 1   
    20     8    21 1   
    21     9    10 1   
    22    10    13 1   
    23    11    14 1   
    24    11    31 1   
    25    12    32 1   
    26    13    16 1   
    27    14    17 1   
    28    14    46 1   
    29    15    28 1   
    30    16    33 1   
    31    17    29 1   
    32    18    19 1   
    33    18    34 1   
    34    19    20 1   
    35    19    35 1   
    36    20    21 1   
    37    20    22 1   
    38    21    36 1   
    39    22    47 1   
    40    23    40 1   
    41    23    41 1   
    42    23    42 1   
    43    24    43 1   
    44    25    27 1   
    45    25    28 1   
    46    26    27 1   
    47    26    44 1   
    48    27    45 1   
    49    37    46 1   
    50    38    46 1   
    51    39    46 1   
@<TRIPOS>SUBSTRUCTURE
     1 639         1 TEMP              0 ****  ****    0 ROOT
