@<TRIPOS>MOLECULE
molecule
   47    50     1     0     0
SMALL
bcc


@<TRIPOS>ATOM
      1 CBD          0.0000     0.0000     0.0000 ca         1 639       0.059600
      2 CBC         -4.5160     2.4070    -6.2490 ca         1 639      -0.040300
      3 NAW         -4.8840     1.6720    -3.8480 nu         1 639      -0.736300
      4 CAG          2.0820     0.0000     1.1920 ca         1 639      -0.075500
      5 CAK         -5.0850     3.1540    -7.2580 ca         1 639      -0.036000
      6 NAT         -2.3430     1.4070    -0.2880 nb         1 639      -0.823000
      7 CBE         -1.9000     0.6750    -1.3080 ca         1 639       0.948900
      8 CAZ         -5.9280     4.2000    -6.9140 ca         1 639      -0.039000
      9 NAS         -2.6180     0.5880    -2.4230 nb         1 639      -0.801000
     10 CBF         -3.7760     1.2350    -2.5140 ca         1 639       0.841900
     11 CAJ         -6.2790     4.6030    -5.7950 ca         1 639      -0.124000
     12 NAV         -0.6950     0.0060    -1.2070 nu         1 639      -0.691300
     13 NAU         -4.2110     1.9650    -1.4910 nb         1 639      -0.811000
     14 CBB         -5.6580     3.7860    -4.6500 ca         1 639       0.003700
     15 NAD          2.6510    -0.0520     4.6340 n1         1 639      -0.359800
     16 CBG         -3.4950     2.0470    -0.3830 ca         1 639       0.730900
     17 CBH         -4.8840     2.8260    -4.9580 ca         1 639       0.102600
     18 CCA         -4.6410     2.6440    -8.6790 ca         1 639      -0.091000
     19 CCB         -5.1860     3.3630    -9.7270 ca         1 639      -0.106000
     20 CCC         -6.0870     4.4750    -9.2070 ca         1 639       0.077000
     21 CAA         -6.5700     5.0440    -8.0860 ca         1 639      -0.116000
     22 CCD         -6.4770     5.4220   -10.6700 cg         1 639       0.111800
     23 CAC         -4.3590     1.0850    -6.5450 c3         1 639      -0.098800
     24 CAI          1.3910     0.0000     0.0000 ca         1 639      -0.119500
     25 CBA          1.3830    -0.0110     2.4010 ca         1 639      -0.016000
     26 CAH         -0.6980    -0.0010     1.2030 ca         1 639      -0.119500
     27 CAF         -0.0150    -0.0050     2.3990 ca         1 639      -0.075500
     28 CAE          2.0980    -0.0270     3.6420 cg         1 639       0.239800
     29 H1          -4.4230     2.2390    -4.5310 hn         1 639       0.446800
     30 H2           3.1420    -0.1510     1.3520 ha         1 639       0.148500
     31 H3          -6.7510     5.5620    -5.6130 ha         1 639       0.166000
     32 H4          -0.5360    -0.9580    -1.4240 hn         1 639       0.435800
     33 H5          -4.0240     2.5420     0.4220 h5         1 639       0.067100
     34 H6          -4.0140     1.8340    -9.0320 ha         1 639       0.169000
     35 H7          -5.0460     3.6110   -10.7720 ha         1 639       0.193000
     36 H8          -7.0800     5.9420    -7.7610 ha         1 639       0.193000
     37 H9          -7.1290     4.1870    -3.2970 hc         1 639       0.063033
     38 H10         -5.4780     4.6770    -2.7380 hc         1 639       0.063033
     39 H11         -6.1340     5.6710    -3.5640 hc         1 639       0.063033
     40 H12         -3.3670     1.0030    -6.9740 hc         1 639       0.068033
     41 H13         -4.4570     0.3460    -5.7580 hc         1 639       0.068033
     42 H14         -4.7220     0.6060    -7.4460 hc         1 639       0.068033
     43 H15          1.6330    -0.4650    -0.9480 ha         1 639       0.143000
     44 H16         -1.6090    -0.4980     0.8920 ha         1 639       0.143000
     45 H17         -0.7120    -0.3190     3.1660 ha         1 639       0.148500
     46 CAB         -6.1620     4.5880    -3.5740 c3         1 639      -0.075800
     47 NAB         -7.1020     6.0230   -11.5790 n1         1 639      -0.405800
@<TRIPOS>BOND
     1     6    16 ar
     2     6     7 ar
     3    24     4 ar
     4    24     1 ar
     5    12     7 1
     6    12     1 1
     7    16    13 ar
     8     4    25 ar
     9     7     9 ar
    10     1    26 ar
    11    13    10 ar
    12    25    28 1
    13    25    27 ar
    14     9    10 ar
    15    26    27 ar
    16    28    15 3
    17    10     3 1
    18     3    17 1
    19    46    14 1
    20    17    14 ar
    21    17     2 ar
    22    14    11 ar
    23    23     2 1
    24     2     5 ar
    25    11     8 ar
    26     5     8 ar
    27     5    18 ar
    28     8    21 ar
    29    18    19 ar
    30    21    20 ar
    31    19    20 ar
    32    20    22 1
    33    22    47 3
    34     3    29 1
    35     4    30 1
    36    11    31 1
    37    12    32 1
    38    16    33 1
    39    18    34 1
    40    19    35 1
    41    21    36 1
    42    46    37 1
    43    46    38 1
    44    46    39 1
    45    23    40 1
    46    23    41 1
    47    23    42 1
    48    24    43 1
    49    26    44 1
    50    27    45 1
@<TRIPOS>SUBSTRUCTURE
     1 639         1 TEMP              0 ****  ****    0 ROOT
