@<TRIPOS>MOLECULE
63A
   53    56     1     0     0
SMALL
bcc


@<TRIPOS>ATOM
      1 N3           0.0000     0.0000     0.0000 n          1 63A      -0.177800
      2 C4           1.4810     0.0000     0.0000 c3         1 63A       0.057000
      3 C5           1.8720     0.0000     1.4940 c3         1 63A      -0.127700
      4 C6           3.1120    -0.8680     1.7190 c3         1 63A       0.579900
      5 C10         -0.8260     0.6780    -0.8200 c          1 63A       0.612100
      6 C20         -3.2770     0.8730     6.6050 ca         1 63A       0.329800
      7 C21         -2.6530     0.0400     5.6570 ca         1 63A      -0.423400
      8 C22         -3.3220    -1.2570     5.7510 cc         1 63A      -0.087200
      9 C26         -0.4040     4.4050     5.3430 cc         1 63A      -0.213700
     10 C1           0.6530    -0.6030     2.2230 c3         1 63A      -0.065700
     11 C2          -0.3670    -0.9200     1.1020 c3         1 63A       0.059000
     12 F7           3.4290    -0.8820     3.0820 f          1 63A      -0.205300
     13 F8           2.8530    -2.1730     1.2870 f          1 63A      -0.205300
     14 F9           4.1870    -0.3400     0.9960 f          1 63A      -0.205300
     15 C11         -0.2580     1.5690    -1.8960 c3         1 63A      -0.098400
     16 C12         -1.4020     2.2160    -2.6790 c3         1 63A       0.020900
     17 O13         -2.0280     0.5730    -0.6930 o          1 63A      -0.634100
     18 C14          0.0690     0.4100     3.2090 c3         1 63A       0.205400
     19 O15         -0.9830    -0.2050     3.9570 os         1 63A      -0.413100
     20 C16         -1.6110     0.5620     4.8800 ca         1 63A       0.754600
     21 N17         -1.2520     1.8250     5.0690 nb         1 63A      -0.793000
     22 C18         -1.8640     2.5830     5.9720 ca         1 63A       0.751900
     23 N19         -2.8510     2.1300     6.7270 nb         1 63A      -0.741000
     24 C23         -4.2640    -1.1400     6.7010 cd         1 63A      -0.303100
     25 N24         -4.2500     0.1320     7.2160 na         1 63A       0.269900
     26 N25         -1.4530     3.8960     6.1320 nu         1 63A      -0.237300
     27 C27          0.0960     5.6660     5.3960 cd         1 63A      -0.296300
     28 N28          1.0970     5.7490     4.4810 na         1 63A       0.483400
     29 N29          1.2100     4.5010     3.8530 nd         1 63A      -0.651800
     30 C30          0.3130     3.6980     4.3670 cc         1 63A       0.356200
     31 C31          1.9140     6.9320     4.2000 c3         1 63A       0.027600
     32 H1           1.8570     0.8920    -0.4870 h1         1 63A       0.033700
     33 H2           1.8570    -0.8920    -0.4870 h1         1 63A       0.033700
     34 H3           2.0480     1.0130     1.8350 hc         1 63A       0.080700
     35 H4          -3.0990    -2.1430     5.1690 ha         1 63A       0.132000
     36 H5           0.9380    -1.5130     2.7360 hc         1 63A       0.057700
     37 H6          -0.2670    -1.9500     0.7830 h1         1 63A       0.042700
     38 H7          -1.3750    -0.7180     1.4420 h1         1 63A       0.042700
     39 H8           0.3510     2.3410    -1.4410 hc         1 63A       0.026700
     40 H9           0.3510     0.9780    -2.5690 hc         1 63A       0.026700
     41 H10         -2.0320     1.4440    -3.1030 hc         1 63A       0.009700
     42 H11         -1.9900     2.8360    -2.0120 hc         1 63A       0.009700
     43 H12         -0.9940     2.8280    -3.4740 hc         1 63A       0.009700
     44 H13          0.8460     0.7430     3.8860 h1         1 63A       0.024700
     45 H14         -0.3240     1.2600     2.6640 h1         1 63A       0.024700
     46 H15         -4.9340    -1.9320     7.0140 h4         1 63A       0.145000
     47 H16         -4.8580     0.4660     7.9370 hn         1 63A       0.118700
     48 H17         -1.8820     4.4740     6.8280 hn         1 63A       0.285800
     49 H18         -0.2420     6.4620     6.0480 h4         1 63A       0.147000
     50 H19          0.1540     2.6640     4.0870 h4         1 63A       0.060100
     51 H20          2.4390     7.2310     5.0990 h1         1 63A       0.018700
     52 H21          2.6320     6.6990     3.4230 h1         1 63A       0.018700
     53 H22          1.2750     7.7420     3.8700 h1         1 63A       0.018700
@<TRIPOS>BOND
     1     1     2 1   
     2     1     5 1   
     3     1    11 1   
     4     2     3 1   
     5     2    32 1   
     6     2    33 1   
     7     3     4 1   
     8     3    10 1   
     9     3    34 1   
    10     4    12 1   
    11     4    13 1   
    12     4    14 1   
    13     5    15 1   
    14     5    17 2   
    15     6     7 ar  
    16     6    23 ar  
    17     6    25 1   
    18     7     8 1   
    19     7    20 ar  
    20     8    24 2   
    21     8    35 1   
    22     9    26 1   
    23     9    27 2   
    24     9    30 1   
    25    10    11 1   
    26    10    18 1   
    27    10    36 1   
    28    11    37 1   
    29    11    38 1   
    30    15    16 1   
    31    15    39 1   
    32    15    40 1   
    33    16    41 1   
    34    16    42 1   
    35    16    43 1   
    36    18    19 1   
    37    18    44 1   
    38    18    45 1   
    39    19    20 1   
    40    20    21 ar  
    41    21    22 ar  
    42    22    23 ar  
    43    22    26 1   
    44    24    25 1   
    45    24    46 1   
    46    25    47 1   
    47    26    48 1   
    48    27    28 1   
    49    27    49 1   
    50    28    29 1   
    51    28    31 1   
    52    29    30 2   
    53    30    50 1   
    54    31    51 1   
    55    31    52 1   
    56    31    53 1   
@<TRIPOS>SUBSTRUCTURE
     1 63A         1 TEMP              0 ****  ****    0 ROOT
