@<TRIPOS>MOLECULE
molecule
   53    56     1     0     0
SMALL
bcc


@<TRIPOS>ATOM
      1 N3           0.0000     0.0000     0.0000 n          1 63A      -0.506800
      2 C4           1.4810     0.0000     0.0000 c3         1 63A       0.103000
      3 C5           1.8720     0.0000     1.4940 c3         1 63A      -0.139700
      4 C6           3.1120    -0.8680     1.7190 c3         1 63A       0.620900
      5 C10         -0.8260     0.6780    -0.8200 c          1 63A       0.684100
      6 C20         -3.2770     0.8730     6.6050 ca         1 63A       0.557800
      7 C21         -2.6530     0.0400     5.6570 ca         1 63A      -0.405400
      8 C22         -3.3220    -1.2570     5.7510 cc         1 63A      -0.139200
      9 C26         -0.4040     4.4050     5.3430 cc         1 63A      -0.046700
     10 C1           0.6530    -0.6030     2.2230 c3         1 63A      -0.086700
     11 C2          -0.3670    -0.9200     1.1020 c3         1 63A       0.106000
     12 F7           3.4290    -0.8820     3.0820 f          1 63A      -0.223300
     13 F8           2.8530    -2.1730     1.2870 f          1 63A      -0.223300
     14 F9           4.1870    -0.3400     0.9960 f          1 63A      -0.223300
     15 C11         -0.2580     1.5690    -1.8960 c3         1 63A      -0.156400
     16 C12         -1.4020     2.2160    -2.6790 c3         1 63A      -0.077100
     17 O13         -2.0280     0.5730    -0.6930 o          1 63A      -0.595100
     18 C14          0.0690     0.4100     3.2090 c3         1 63A       0.145400
     19 O15         -0.9830    -0.2050     3.9570 os         1 63A      -0.428100
     20 C16         -1.6110     0.5620     4.8800 ca         1 63A       0.771600
     21 N17         -1.2520     1.8250     5.0690 nb         1 63A      -0.893000
     22 C18         -1.8640     2.5830     5.9720 ca         1 63A       1.001900
     23 N19         -2.8510     2.1300     6.7270 nb         1 63A      -0.851000
     24 C23         -4.2640    -1.1400     6.7010 cd         1 63A      -0.129100
     25 N24         -4.2500     0.1320     7.2160 na         1 63A      -0.274100
     26 N25         -1.4530     3.8960     6.1320 nu         1 63A      -0.727300
     27 C27          0.0960     5.6660     5.3960 cd         1 63A      -0.164300
     28 N28          1.0970     5.7490     4.4810 na         1 63A       0.058400
     29 N29          1.2100     4.5010     3.8530 nd         1 63A      -0.518800
     30 C30          0.3130     3.6980     4.3670 cc         1 63A       0.326200
     31 C31          1.9140     6.9320     4.2000 c3         1 63A       0.071600
     32 H1           1.8570     0.8920    -0.4870 h1         1 63A       0.063700
     33 H2           1.8570    -0.8920    -0.4870 h1         1 63A       0.063700
     34 H3           2.0480     1.0130     1.8350 hc         1 63A       0.103700
     35 H4          -3.0990    -2.1430     5.1690 ha         1 63A       0.162000
     36 H5           0.9380    -1.5130     2.7360 hc         1 63A       0.086700
     37 H6          -0.2670    -1.9500     0.7830 h1         1 63A       0.074200
     38 H7          -1.3750    -0.7180     1.4420 h1         1 63A       0.074200
     39 H8           0.3510     2.3410    -1.4410 hc         1 63A       0.059200
     40 H9           0.3510     0.9780    -2.5690 hc         1 63A       0.059200
     41 H10         -2.0320     1.4440    -3.1030 hc         1 63A       0.044700
     42 H11         -1.9900     2.8360    -2.0120 hc         1 63A       0.044700
     43 H12         -0.9940     2.8280    -3.4740 hc         1 63A       0.044700
     44 H13          0.8460     0.7430     3.8860 h1         1 63A       0.060200
     45 H14         -0.3240     1.2600     2.6640 h1         1 63A       0.060200
     46 H15         -4.9340    -1.9320     7.0140 h4         1 63A       0.172000
     47 H16         -4.8580     0.4660     7.9370 hn         1 63A       0.306700
     48 H17         -1.8820     4.4740     6.8280 hn         1 63A       0.466800
     49 H18         -0.2420     6.4620     6.0480 h4         1 63A       0.169000
     50 H19          0.1540     2.6640     4.0870 h4         1 63A       0.090100
     51 H20          2.4390     7.2310     5.0990 h1         1 63A       0.052367
     52 H21          2.6320     6.6990     3.4230 h1         1 63A       0.052367
     53 H22          1.2750     7.7420     3.8700 h1         1 63A       0.052367
@<TRIPOS>BOND
     1    24    25 1   
     2    24     8 2   
     3    25     6 1   
     4     8     7 1   
     5     6     7 ar  
     6     6    23 ar  
     7     7    20 ar  
     8    23    22 ar  
     9    20    19 1   
    10    20    21 ar  
    11    22    21 ar  
    12    22    26 1   
    13    19    18 1   
    14    26     9 1   
    15    12     4 1   
    16     9    27 2   
    17     9    30 1   
    18    27    28 1   
    19    18    10 1   
    20    30    29 2   
    21    10     3 1   
    22    10    11 1   
    23     4     3 1   
    24     4    14 1   
    25     4    13 1   
    26    28    29 1   
    27    28    31 1   
    28     3     2 1   
    29    11     1 1   
    30     2     1 1   
    31     1     5 1   
    32     5    17 2   
    33     5    15 1   
    34    15    16 1   
    35     2    32 1   
    36     2    33 1   
    37     3    34 1   
    38     8    35 1   
    39    10    36 1   
    40    11    37 1   
    41    11    38 1   
    42    15    39 1   
    43    15    40 1   
    44    16    41 1   
    45    16    42 1   
    46    16    43 1   
    47    18    44 1   
    48    18    45 1   
    49    24    46 1   
    50    25    47 1   
    51    26    48 1   
    52    27    49 1   
    53    30    50 1   
    54    31    51 1   
    55    31    52 1   
    56    31    53 1   
@<TRIPOS>SUBSTRUCTURE
     1 63A         1 TEMP              0 ****  ****    0 ROOT
