@<TRIPOS>MOLECULE
63B
   45    49     1     0     0
SMALL
bcc


@<TRIPOS>ATOM
      1 N1           0.0000     0.0000     0.0000 na         1 63B       0.594300
      2 N3           1.7530     0.0000     1.2560 nc         1 63B      -0.334700
      3 C4          -2.2480    -0.0090    -0.6930 cc         1 63B       0.521800
      4 C5           4.0160    -0.1520    -0.7280 ca         1 63B       0.024900
      5 C6          -2.6670    -0.0090     0.6560 cc         1 63B      -0.274300
      6 C7          -3.2640    -0.0130    -1.7740 ca         1 63B      -0.190500
      7 C8           4.7760     0.9830    -0.4910 ca         1 63B       0.010000
      8 C10         -4.6210    -0.0110    -1.4580 ca         1 63B      -0.039000
      9 C13          5.7750    -1.5490     0.1060 ca         1 63B      -0.064000
     10 C15         -3.8110    -0.0160    -4.1120 ca         1 63B      -0.140500
     11 C17         -5.1600    -0.0190    -3.7930 ca         1 63B       0.127900
     12 C20         10.7490     4.8870     1.7210 c3         1 63B       0.288700
     13 C1           1.3600     0.0000     0.0000 cd         1 63B       0.198700
     14 C2          -0.3760     0.0000     1.3290 cd         1 63B      -0.330300
     15 N2          -0.9710    -0.0050    -1.0020 nd         1 63B      -0.600800
     16 S1           2.4030     0.0010    -1.4210 ss         1 63B      -0.226100
     17 N4           0.7340     0.0040     2.0410 nc         1 63B      -0.029000
     18 C3          -1.7470    -0.0050     1.6560 cd         1 63B       0.048000
     19 C9           4.5240    -1.4130    -0.4260 ca         1 63B      -0.054000
     20 C11         -2.8630    -0.0130    -3.1100 ca         1 63B      -0.039000
     21 C12          6.0460     0.8570     0.0490 ca         1 63B      -0.295200
     22 C14         -5.5620    -0.0130    -2.4670 ca         1 63B      -0.140500
     23 C16          6.5570    -0.4170     0.3520 ca         1 63B       0.116400
     24 N5           7.0360     1.7600     0.3970 na         1 63B       0.257700
     25 N6           7.8040    -0.2370     0.8610 nc         1 63B      -0.569100
     26 C18          8.0870     1.0390     0.8870 cd         1 63B       0.154400
     27 F           -6.0840    -0.0270    -4.7780 f          1 63B      -0.124900
     28 N7           9.2780     1.5800     1.3440 ns         1 63B       0.036600
     29 C19          9.4630     2.9150     1.3260 c          1 63B       0.673100
     30 O1          10.6200     3.4410     1.7710 os         1 63B      -0.414900
     31 O2           8.5860     3.6440     0.9080 o          1 63B      -0.674000
     32 H1          -3.7230    -0.0120     0.8950 ha         1 63B       0.135000
     33 H2           4.4250     1.9510    -0.8290 ha         1 63B       0.114000
     34 H3          -4.9370    -0.0060    -0.4220 ha         1 63B       0.123500
     35 H4           6.1600    -2.5350     0.3370 ha         1 63B       0.114000
     36 H5          -3.5010    -0.0190    -5.1500 ha         1 63B       0.124000
     37 H6           9.9720     5.3390     2.3260 h1         1 63B       0.004367
     38 H7          10.6510     5.2230     0.6960 h1         1 63B       0.004367
     39 H8          11.7200     5.1760     2.1050 h1         1 63B       0.004367
     40 H9          -2.0630    -0.0050     2.6930 ha         1 63B       0.127000
     41 H10          3.9220    -2.2940    -0.6150 ha         1 63B       0.117000
     42 H11         -1.8090    -0.0110    -3.3600 ha         1 63B       0.123500
     43 H12         -6.6180    -0.0140    -2.2220 ha         1 63B       0.124000
     44 H13          6.9900     2.7550     0.3070 hn         1 63B       0.183700
     45 H15         10.0010     0.9800     1.6880 hn         1 63B       0.188500
@<TRIPOS>BOND
     1     1    13 1   
     2     1    14 1   
     3     1    15 1   
     4     2    13 2   
     5     2    17 1   
     6     3     5 1   
     7     3     6 1   
     8     3    15 2   
     9     4     7 ar  
    10     4    16 1   
    11     4    19 ar  
    12     5    18 2   
    13     5    32 1   
    14     6     8 ar  
    15     6    20 ar  
    16     7    21 ar  
    17     7    33 1   
    18     8    22 ar  
    19     8    34 1   
    20     9    19 ar  
    21     9    23 ar  
    22     9    35 1   
    23    10    11 ar  
    24    10    20 ar  
    25    10    36 1   
    26    11    22 ar  
    27    11    27 1   
    28    12    30 1   
    29    12    37 1   
    30    12    38 1   
    31    12    39 1   
    32    13    16 1   
    33    14    17 2   
    34    14    18 1   
    35    18    40 1   
    36    19    41 1   
    37    20    42 1   
    38    21    23 ar  
    39    21    24 1   
    40    22    43 1   
    41    23    25 1   
    42    24    26 1   
    43    24    44 1   
    44    25    26 2   
    45    26    28 1   
    46    28    29 1   
    47    28    45 1   
    48    29    30 1   
    49    29    31 2   
@<TRIPOS>SUBSTRUCTURE
     1 63B         1 TEMP              0 ****  ****    0 ROOT
