@<TRIPOS>MOLECULE
molecule
   62    65     1     0     0
SMALL
bcc


@<TRIPOS>ATOM
      1 C2           0.0000     0.0000     0.0000 c3         1 63C      -0.137700
      2 C3           1.5460     0.0000     0.0000 c3         1 63C      -0.150700
      3 N4           0.6970     0.0320     2.2740 n3         1 63C      -0.668600
      4 C5          -0.5330    -0.9000    -1.0840 c          1 63C       0.674100
      5 N6          -3.8390    -4.0110    -5.5300 n          1 63C      -0.232200
      6 C7           2.0700     1.2360    -0.6840 c          1 63C       0.677100
      7 C8           1.9480     0.0000     1.4870 c3         1 63C       0.150800
      8 C9          -0.3470    -0.5630     1.4010 c3         1 63C       0.146800
      9 C10         -4.4410    -3.3810    -6.5570 c          1 63C       0.683700
     10 C11         -3.3430    -3.2640    -4.4540 ca         1 63C       0.022600
     11 N12         -1.8640    -1.0380    -1.2510 ns         1 63C      -0.464100
     12 C13         -4.1350    -3.0540    -3.3310 ca         1 63C      -0.131000
     13 N14          3.3980     1.4340    -0.7940 ns         1 63C      -0.471100
     14 C15         -2.3610    -1.7860    -2.3270 ca         1 63C       0.036600
     15 C16         -3.6460    -2.3170    -2.2700 ca         1 63C       0.093900
     16 C19         -3.7120    -5.3640    -5.5240 cc         1 63C       0.012600
     17 O20          0.2340    -1.5000    -1.8060 o          1 63C      -0.601100
     18 O21          1.2960     2.0530    -1.1360 o          1 63C      -0.592100
     19 C22         -4.9400    -4.1220    -7.6400 cc         1 63C      -0.259200
     20 O23         -4.5520    -2.1660    -6.5460 o          1 63C      -0.638500
     21 C24         -2.0590    -2.7380    -4.5070 ca         1 63C      -0.099000
     22 C25         -1.5700    -2.0010    -3.4470 ca         1 63C      -0.117000
     23 C26         -4.1880    -6.1070    -6.5500 cd         1 63C      -0.247000
     24 C27         -4.8090    -5.4800    -7.6390 cd         1 63C      -0.047000
     25 C28          3.8850     2.6300    -1.3350 ca         1 63C       0.057600
     26 F30         -4.4140    -2.1120    -1.1780 f          1 63C      -0.141900
     27 C31          4.8480     4.9920    -2.4050 ca         1 63C       0.012400
     28 C33          5.0520     3.1940    -0.8360 ca         1 63C      -0.136500
     29 C34          3.2070     3.2490    -2.3750 ca         1 63C      -0.136500
     30 C35          3.6890     4.4290    -2.9070 ca         1 63C      -0.105000
     31 C36          5.5300     4.3740    -1.3710 ca         1 63C      -0.105000
     32 C1           0.8400    -0.7340     3.5200 c3         1 63C       0.076800
     33 Cl           5.4530     6.4750    -3.0770 cl         1 63C      -0.114400
     34 C40          1.7720    -0.0060     4.4530 c          1 63C       0.654100
     35 O41          2.2690     1.0470     4.1140 o          1 63C      -0.585100
     36 N42          2.0550    -0.5250     5.6640 ns         1 63C      -0.593900
     37 C43          2.9610     0.1840     6.5710 c3         1 63C       0.104300
     38 H2          -0.3800     1.0080    -0.1090 hc         1 63C       0.123700
     39 H3           1.9190    -0.8920    -0.4880 hc         1 63C       0.101700
     40 H91C        -0.2760    -1.6440     1.4050 h1         1 63C       0.049700
     41 H92C        -1.3330    -0.2370     1.7090 h1         1 63C       0.049700
     42 H81C         2.5060    -0.9000     1.7170 h1         1 63C       0.060700
     43 H82C         2.5440     0.8770     1.7070 h1         1 63C       0.060700
     44 H11C         1.2450    -1.7140     3.2970 h1         1 63C       0.053700
     45 H12C        -0.1300    -0.8430     3.9910 h1         1 63C       0.053700
     46 H12         -2.4970    -0.5790    -0.6260 hn         1 63C       0.338500
     47 H19         -3.2290    -5.8540    -4.6870 h4         1 63C       0.158000
     48 H14          4.0350     0.7690    -0.4010 hn         1 63C       0.325500
     49 H22         -5.4220    -3.6200    -8.4710 ha         1 63C       0.166000
     50 H13         -5.1350    -3.4690    -3.2880 ha         1 63C       0.158000
     51 H24         -1.4410    -2.9050    -5.3810 ha         1 63C       0.152000
     52 H25         -0.5680    -1.5910    -3.4890 ha         1 63C       0.192000
     53 H26         -4.0790    -7.1850    -6.5350 ha         1 63C       0.147000
     54 H27         -5.1910    -6.0680    -8.4650 ha         1 63C       0.137000
     55 H33          5.5860     2.7100    -0.0280 ha         1 63C       0.153000
     56 H34          2.2990     2.8080    -2.7690 ha         1 63C       0.153000
     57 H35          3.1590     4.9150    -3.7180 ha         1 63C       0.146500
     58 H36          6.4390     4.8160    -0.9810 ha         1 63C       0.146500
     59 H42          1.6450    -1.3930     5.9450 hn         1 63C       0.310500
     60 H50          3.9310     0.2920     6.1010 h1         1 63C       0.043367
     61 H51          2.5560     1.1640     6.7940 h1         1 63C       0.043367
     62 H52          3.0660    -0.3800     7.4900 h1         1 63C       0.043367
@<TRIPOS>BOND
     1     1     2 1
     2     1     4 1
     3     1     8 1
     4     2     6 1
     5     2     7 1
     6     3     7 1
     7     3     8 1
     8     3    32 1
     9     4    11 1
    10     4    17 2
    11     5     9 1
    12     5    10 1
    13     5    16 1
    14     6    13 1
    15     6    18 2
    16     9    19 1
    17     9    20 2
    18    10    12 ar
    19    10    21 ar
    20    11    14 1
    21    12    15 ar
    22    13    25 1
    23    14    15 ar
    24    14    22 ar
    25    15    26 1
    26    16    23 2
    27    19    24 2
    28    21    22 ar
    29    23    24 1
    30    25    28 ar
    31    25    29 ar
    32    27    30 ar
    33    27    31 ar
    34    27    33 1
    35    28    31 ar
    36    29    30 ar
    37    32    34 1
    38    34    35 2
    39    34    36 1
    40    36    37 1
    41     1    38 1
    42     2    39 1
    43     8    40 1
    44     8    41 1
    45     7    42 1
    46     7    43 1
    47    32    44 1
    48    32    45 1
    49    11    46 1
    50    16    47 1
    51    13    48 1
    52    19    49 1
    53    12    50 1
    54    21    51 1
    55    22    52 1
    56    23    53 1
    57    24    54 1
    58    28    55 1
    59    29    56 1
    60    30    57 1
    61    31    58 1
    62    36    59 1
    63    37    60 1
    64    37    61 1
    65    37    62 1
@<TRIPOS>SUBSTRUCTURE
     1 63C         1 TEMP              0 ****  ****    0 ROOT
