@<TRIPOS>MOLECULE
molecule
   66    67     1     0     0
SMALL
bcc


@<TRIPOS>ATOM
      1 OAC          0.0000     0.0000     0.0000 o          1 63D      -0.785300
      2 CAZ          1.2140     0.0000     0.0000 c          1 63D       0.871200
      3 OAF          1.8890     0.0000     1.1660 o          1 63D      -0.785300
      4 CBF          1.9510    -0.0040    -1.2770 ca         1 63D      -0.119600
      5 CAM          3.3490    -0.0040    -1.2810 ca         1 63D       0.038000
      6 CBG          4.0320    -0.0090    -2.4770 ca         1 63D      -0.372500
      7 SBH          5.7940    -0.0090    -2.4810 sy         1 63D       1.210200
      8 OAD          6.1930     1.0100    -3.3890 o          1 63D      -0.534800
      9 OAE          6.1980    -0.0390    -1.1190 o          1 63D      -0.534800
     10 NAB          6.2820    -1.4440    -3.1460 nz         1 63D      -0.806500
     11 CBD          3.3380    -0.0140    -3.6790 ca         1 63D       0.097400
     12 Cl1          4.2120    -0.0200    -5.1790 cl         1 63D      -0.131400
     13 CAL          1.9570    -0.0140    -3.6880 ca         1 63D      -0.234000
     14 CBE          1.2540    -0.0150    -2.4940 ca         1 63D       0.246100
     15 OAY         -0.1030    -0.0220    -2.5010 os         1 63D      -0.221900
     16 CAW         -0.7450    -0.0330    -3.7780 c3         1 63D       0.170700
     17 CBB         -2.2400    -0.0390    -3.5890 ca         1 63D      -0.043300
     18 CAK         -2.9170    -1.2390    -3.4890 ca         1 63D      -0.137000
     19 CAI         -2.9290     1.1550    -3.5100 ca         1 63D      -0.158000
     20 CBA         -4.3060     1.1530    -3.3350 ca         1 63D       0.143100
     21 OAG         -4.9850     2.3280    -3.2580 oh         1 63D      -0.526100
     22 CAJ         -4.9890    -0.0500    -3.2400 ca         1 63D      -0.234000
     23 CBC         -4.2940    -1.2470    -3.3150 ca         1 63D       0.156100
     24 OAX         -4.9590    -2.4280    -3.2170 os         1 63D      -0.328900
     25 CAV         -6.3760    -2.3600    -3.0380 c3         1 63D       0.136400
     26 CAU         -6.9470    -3.7780    -2.9500 c3         1 63D      -0.082400
     27 CAT         -8.4630    -3.7050    -2.7600 c3         1 63D      -0.080400
     28 CAS         -9.0340    -5.1230    -2.6710 c3         1 63D      -0.079400
     29 CAR        -10.5510    -5.0510    -2.4800 c3         1 63D      -0.082400
     30 CAQ        -11.1210    -6.4680    -2.3910 c3         1 63D      -0.081400
     31 CAP        -12.6370    -6.3960    -2.2000 c3         1 63D      -0.082400
     32 CAO        -13.2080    -7.8130    -2.1110 c3         1 63D      -0.081400
     33 CAN        -14.7240    -7.7410    -1.9210 c3         1 63D      -0.084400
     34 CAA        -15.2940    -9.1580    -1.8320 c3         1 63D      -0.092100
     35 H2           3.8930     0.0580    -0.3460 ha         1 63D       0.204000
     36 H3           7.1230    -1.3010    -3.6700 hn         1 63D       0.485800
     37 H4           5.5660    -1.7920    -3.7520 hn         1 63D       0.485800
     38 H5           1.4220    -0.0200    -4.6300 ha         1 63D       0.157000
     39 H6          -0.4560     0.8500    -4.3350 h1         1 63D       0.040200
     40 H7          -0.4460    -0.9190    -4.3250 h1         1 63D       0.040200
     41 H8          -2.3740    -2.1750    -3.5470 ha         1 63D       0.146000
     42 H9          -2.3980     2.0940    -3.6090 ha         1 63D       0.144000
     43 H10         -5.0190     2.6130    -2.3600 ho         1 63D       0.428000
     44 H11         -6.0630    -0.0550    -3.1040 ha         1 63D       0.146000
     45 H12         -6.6000    -1.8230    -2.1240 h1         1 63D       0.037200
     46 H13         -6.8220    -1.8430    -3.8790 h1         1 63D       0.037200
     47 H14         -6.5010    -4.2950    -2.1090 hc         1 63D       0.056200
     48 H15         -6.7230    -4.3150    -3.8640 hc         1 63D       0.056200
     49 H16         -8.6860    -3.1680    -1.8460 hc         1 63D       0.043200
     50 H17         -8.9080    -3.1890    -3.6010 hc         1 63D       0.043200
     51 H18         -8.5880    -5.6400    -1.8290 hc         1 63D       0.043700
     52 H19         -8.8100    -5.6610    -3.5840 hc         1 63D       0.043700
     53 H20        -10.9960    -4.5340    -3.3220 hc         1 63D       0.041700
     54 H21        -10.7740    -4.5130    -1.5670 hc         1 63D       0.041700
     55 H22        -10.8970    -7.0060    -3.3050 hc         1 63D       0.041700
     56 H23        -10.6750    -6.9850    -1.5500 hc         1 63D       0.041700
     57 H24        -13.0830    -5.8790    -3.0420 hc         1 63D       0.041200
     58 H25        -12.8610    -5.8580    -1.2870 hc         1 63D       0.041200
     59 H26        -12.9840    -8.3510    -3.0250 hc         1 63D       0.041200
     60 H27        -12.7620    -8.3300    -1.2700 hc         1 63D       0.041200
     61 H28        -14.9480    -7.2030    -1.0070 hc         1 63D       0.040200
     62 H29        -15.1700    -7.2240    -2.7620 hc         1 63D       0.040200
     63 H30        -14.8500    -9.6740    -0.9890 hc         1 63D       0.032367
     64 H31        -16.3680    -9.1080    -1.6980 hc         1 63D       0.032367
     65 H32        -15.0690    -9.6960    -2.7440 hc         1 63D       0.032367
     66 HAB3         6.4510    -2.1090    -2.4170 hn         1 63D       0.485800
@<TRIPOS>BOND
     1    31    32 1
     2    31    30 1
     3    32    33 1
     4    34    33 1
     5    30    29 1
     6    29    28 1
     7    28    27 1
     8    27    26 1
     9    26    25 1
    10    25    24 1
    11    24    23 1
    12    23    18 ar
    13    23    22 ar
    14    18    17 ar
    15    22    20 ar
    16    17    16 1
    17    17    19 ar
    18    20    19 ar
    19    20    21 1
    20     1     2 1
    21     3     2 1
    22    16    15 1
    23     2     4 1
    24     4     5 ar
    25     4    14 ar
    26    15    14 1
    27     5     6 ar
    28    14    13 ar
    29    10     7 1
    30     8     7 2
    31     6     7 1
    32     6    11 ar
    33     7     9 2
    34    13    11 ar
    35    11    12 1
    36     5    35 1
    37    10    36 1
    38    10    37 1
    39    13    38 1
    40    16    39 1
    41    16    40 1
    42    18    41 1
    43    19    42 1
    44    21    43 1
    45    22    44 1
    46    25    45 1
    47    25    46 1
    48    26    47 1
    49    26    48 1
    50    27    49 1
    51    27    50 1
    52    28    51 1
    53    28    52 1
    54    29    53 1
    55    29    54 1
    56    30    55 1
    57    30    56 1
    58    31    57 1
    59    31    58 1
    60    32    59 1
    61    32    60 1
    62    33    61 1
    63    33    62 1
    64    34    63 1
    65    34    64 1
    66    34    65 1
    67    66    10 1
@<TRIPOS>SUBSTRUCTURE
     1 63D         1 TEMP              0 ****  ****    0 ROOT
