@<TRIPOS>MOLECULE
63E
   37    39     1     0     0
SMALL
bcc


@<TRIPOS>ATOM
      1 C1           0.0000     0.0000     0.0000 ca         1 63E      -0.254300
      2 C2           1.3860     0.0000     0.0000 ca         1 63E       0.417200
      3 C8           0.9210    -0.0000     4.4840 cc         1 63E      -0.243100
      4 C9          -0.2590     0.0010     3.8130 cd         1 63E      -0.224000
      5 C10         -1.6140     0.0010     4.4070 ca         1 63E       0.539100
      6 C11         -1.7820     0.0070     5.7970 ca         1 63E      -0.358600
      7 C12         -3.0660     0.0070     6.3050 ca         1 63E       0.424600
      8 C14         -3.9080    -0.0020     4.1580 ca         1 63E       0.718900
      9 C19         -4.4250     1.1990     9.6810 c3         1 63E      -0.029400
     10 C20         -5.3220     2.3820    10.0550 c3         1 63E       0.006900
     11 N3           2.0760     0.0000     1.1210 nb         1 63E      -0.581000
     12 C4          -0.6780     0.0000     1.2060 ca         1 63E      -0.004000
     13 C5           0.0740     0.0000     2.3810 ca         1 63E      -0.181100
     14 C6           1.4780     0.0010     2.3060 ca         1 63E       0.218800
     15 N7           1.9550     0.0000     3.5970 na         1 63E       0.277900
     16 N13         -4.0940     0.0020     5.4700 nb         1 63E      -0.638000
     17 N15         -2.6950     0.0030     3.6280 nb         1 63E      -0.638000
     18 N16         -5.0100    -0.0060     3.3210 nv         1 63E      -0.640500
     19 C17         -3.2950     0.0120     7.7950 c3         1 63E      -0.071700
     20 C18         -4.1910     1.1940     8.1690 c3         1 63E      -0.028400
     21 H1          -0.5470     0.0000    -0.9350 ha         1 63E       0.114000
     22 H2           1.9140    -0.0000    -0.9460 h4         1 63E      -0.022900
     23 H3           1.0250    -0.0010     5.5620 h4         1 63E       0.145000
     24 H4          -0.9240     0.0110     6.4590 ha         1 63E       0.125000
     25 H5          -4.9260     0.2720     9.9340 hc         1 63E       0.011200
     26 H6          -3.4920     1.2660    10.2270 hc         1 63E       0.011200
     27 H7          -4.8400     3.3070     9.7610 hc         1 63E       0.000700
     28 H8          -5.4870     2.3850    11.1260 hc         1 63E       0.000700
     29 H9          -6.2720     2.2910     9.5430 hc         1 63E       0.000700
     30 H10         -1.7600     0.0000     1.2370 ha         1 63E       0.130000
     31 H11          2.9240    -0.0000     3.8480 hn         1 63E       0.118700
     32 H12         -5.4000     0.8590     3.0030 hn         1 63E       0.278800
     33 H13         -5.4240    -0.8740     3.0440 hn         1 63E       0.278800
     34 H14         -3.7760    -0.9130     8.0890 hc         1 63E       0.023700
     35 H15         -2.3440     0.1040     8.3060 hc         1 63E       0.023700
     36 H16         -5.1420     1.1030     7.6570 hc         1 63E       0.024700
     37 H17         -3.7100     2.1200     7.8750 hc         1 63E       0.024700
@<TRIPOS>BOND
     1     1     2 ar  
     2     1    12 ar  
     3     1    21 1   
     4     2    11 ar  
     5     2    22 1   
     6     3     4 2   
     7     3    15 1   
     8     3    23 1   
     9     4     5 1   
    10     4    13 1   
    11     5     6 ar  
    12     5    17 ar  
    13     6     7 ar  
    14     6    24 1   
    15     7    16 ar  
    16     7    19 1   
    17     8    16 ar  
    18     8    17 ar  
    19     8    18 1   
    20     9    10 1   
    21     9    20 1   
    22     9    25 1   
    23     9    26 1   
    24    10    27 1   
    25    10    28 1   
    26    10    29 1   
    27    11    14 ar  
    28    12    13 ar  
    29    12    30 1   
    30    13    14 ar  
    31    14    15 1   
    32    15    31 1   
    33    18    32 1   
    34    18    33 1   
    35    19    20 1   
    36    19    34 1   
    37    19    35 1   
    38    20    36 1   
    39    20    37 1   
@<TRIPOS>SUBSTRUCTURE
     1 63E         1 TEMP              0 ****  ****    0 ROOT
