@<TRIPOS>MOLECULE
molecule
   37    39     1     0     0
SMALL
bcc


@<TRIPOS>ATOM
      1 C1           0.0000     0.0000     0.0000 ca         1 63E      -0.289300
      2 C2           1.3860     0.0000     0.0000 ca         1 63E       0.448200
      3 C8           0.9210    -0.0000     4.4840 cc         1 63E      -0.063100
      4 C9          -0.2590     0.0010     3.8130 cd         1 63E      -0.226000
      5 C10         -1.6140     0.0010     4.4070 ca         1 63E       0.576100
      6 C11         -1.7820     0.0070     5.7970 ca         1 63E      -0.393600
      7 C12         -3.0660     0.0070     6.3050 ca         1 63E       0.480600
      8 C14         -3.9080    -0.0020     4.1580 ca         1 63E       0.940900
      9 C19         -4.4250     1.1990     9.6810 c3         1 63E      -0.086400
     10 C20         -5.3220     2.3820    10.0550 c3         1 63E      -0.091100
     11 N3           2.0760     0.0000     1.1210 nb         1 63E      -0.716000
     12 C4          -0.6780     0.0000     1.2060 ca         1 63E      -0.030000
     13 C5           0.0740     0.0000     2.3810 ca         1 63E      -0.187100
     14 C6           1.4780     0.0010     2.3060 ca         1 63E       0.458800
     15 N7           1.9550     0.0000     3.5970 na         1 63E      -0.271100
     16 N13         -4.0940     0.0020     5.4700 nb         1 63E      -0.761000
     17 N15         -2.6950     0.0030     3.6280 nb         1 63E      -0.758000
     18 N16         -5.0100    -0.0060     3.3210 nv         1 63E      -1.061500
     19 C17         -3.2950     0.0120     7.7950 c3         1 63E      -0.128700
     20 C18         -4.1910     1.1940     8.1690 c3         1 63E      -0.076400
     21 H1          -0.5470     0.0000    -0.9350 ha         1 63E       0.139000
     22 H2           1.9140    -0.0000    -0.9460 h4         1 63E       0.023100
     23 H3           1.0250    -0.0010     5.5620 h4         1 63E       0.173000
     24 H4          -0.9240     0.0110     6.4590 ha         1 63E       0.139000
     25 H5          -4.9260     0.2720     9.9340 hc         1 63E       0.038700
     26 H6          -3.4920     1.2660    10.2270 hc         1 63E       0.038700
     27 H7          -4.8400     3.3070     9.7610 hc         1 63E       0.034033
     28 H8          -5.4870     2.3850    11.1260 hc         1 63E       0.034033
     29 H9          -6.2720     2.2910     9.5430 hc         1 63E       0.034033
     30 H10         -1.7600     0.0000     1.2370 ha         1 63E       0.164000
     31 H11          2.9240    -0.0000     3.8480 hn         1 63E       0.307700
     32 H12         -5.4000     0.8590     3.0030 hn         1 63E       0.443800
     33 H13         -5.4240    -0.8740     3.0440 hn         1 63E       0.443800
     34 H14         -3.7760    -0.9130     8.0890 hc         1 63E       0.056700
     35 H15         -2.3440     0.1040     8.3060 hc         1 63E       0.056700
     36 H16         -5.1420     1.1030     7.6570 hc         1 63E       0.054700
     37 H17         -3.7100     2.1200     7.8750 hc         1 63E       0.054700
@<TRIPOS>BOND
     1     1     2 ar  
     2     1    12 ar  
     3     2    11 ar  
     4    12    13 ar  
     5    19     7 1   
     6    19    20 1   
     7    11    14 ar  
     8    13    14 ar  
     9    13     4 1   
    10     6     7 ar  
    11     6     5 ar  
    12    14    15 1   
    13     7    16 ar  
    14     4     5 1   
    15     4     3 2   
    16    15     3 1   
    17     5    17 ar  
    18     9    20 1   
    19     9    10 1   
    20    16     8 ar  
    21    17     8 ar  
    22     8    18 1   
    23     1    21 1   
    24     2    22 1   
    25     3    23 1   
    26     6    24 1   
    27     9    25 1   
    28     9    26 1   
    29    10    27 1   
    30    10    28 1   
    31    10    29 1   
    32    12    30 1   
    33    15    31 1   
    34    18    32 1   
    35    18    33 1   
    36    19    34 1   
    37    19    35 1   
    38    20    36 1   
    39    20    37 1   
@<TRIPOS>SUBSTRUCTURE
     1 63E         1 TEMP              0 ****  ****    0 ROOT
