@<TRIPOS>MOLECULE
63F
   75    71     1     0     0
SMALL
bcc


@<TRIPOS>ATOM
      1 C1          0.2490    0.6740    0.2200 c2        1 63F      0.059000
      2 C2          2.9640    3.2810    3.0620 c2        1 63F     -0.123000
      3 C3          1.1610    0.8640    1.1370 c1        1 63F      0.007000
      4 C4          2.5630    2.1690    2.5610 c1        1 63F      0.124000
      5 C5         -8.0670    0.3510   -3.2810 c2        1 63F     -0.278000
      6 C6         -9.6720   -1.5550   -3.1690 c2        1 63F     -0.494000
      7 C7         -7.1600   -0.1620   -2.3170 c2        1 63F      0.170000
      8 C8         -9.0100   -2.4440   -2.4380 c1        1 63F      0.260000
      9 C9         -8.7510   -5.1610    6.0500 c1        1 63F     -0.117000
     10 C10        -8.3520   -4.3390    4.9160 c3        1 63F     -0.223000
     11 C11        -1.1130    0.2910    0.3760 c2        1 63F     -0.304000
     12 C12         2.1760    0.9820    2.0250 c2        1 63F      0.075000
     13 C13        -9.1820   -0.3190   -3.7200 c2        1 63F      0.264000
     14 C14        -6.8310   -1.4740   -2.1660 c2        1 63F     -1.076000
     15 C15        -7.7960   -5.4300    7.0430 c2        1 63F     -0.354000
     16 C16        -6.9250   -3.8260    4.9730 c2        1 63F      0.143000
     17 C18        -3.3730   -1.1740    2.9180 c2        1 63F      0.350000
     18 C19        -4.4430   -8.3450    8.6800 c2        1 63F     -0.081000
     19 C20        -6.1110   -6.4360    9.2640 c2        1 63F     -0.010000
     20 C21        -9.6500   -1.3840    3.4210 c3        1 63F     -0.286000
     21 C22        -7.5510   -3.0250    1.0480 c1        1 63F      0.208000
     22 C23        -5.1730   -2.4740    3.9340 c2        1 63F      0.005000
     23 C24        -4.7740   -1.6610    2.9300 c2        1 63F     -0.220000
     24 C25        -5.2930   -7.4030    8.9460 c1        1 63F     -0.160000
     25 C26        -1.6190   -0.2090    1.5490 c2        1 63F      0.117000
     26 C27         2.6150   -0.9870    3.3440 c3        1 63F      0.540000
     27 C28       -11.2000    0.0530   -5.0530 c3        1 63F      0.549000
     28 N29        -6.4940   -4.9430    6.9830 n2        1 63F      0.127000
     29 N30        -6.0840   -4.2210    6.0630 n2        1 63F     -0.126000
     30 N31        -6.4740   -3.0090    4.0070 n3        1 63F     -0.149000
     31 N32        -6.8860   -2.6540    0.1330 n2        1 63F     -0.797000
     32 N33        -9.5080   -6.6640    8.2490 n3        1 63F     -0.263000
     33 N34        -2.9160   -0.6160    1.7090 n         1 63F     -0.301000
     34 O35        -7.5050   -6.6690    9.2250 os        1 63F     -0.154000
     35 O36        -2.6250   -1.2490    3.9070 o         1 63F     -0.309000
     36 O39         2.9850   -0.1350    2.2740 os        1 63F     -0.244000
     37 F41         1.3340   -1.4120    3.2070 f         1 63F     -0.126333
     38 F42         3.4720   -2.0250    3.2640 f         1 63F     -0.126333
     39 F43         2.7440   -0.3440    4.5280 f         1 63F     -0.126333
     40 F44       -11.9920    0.1650   -3.9600 f         1 63F     -0.121667
     41 F45       -11.5160    0.9970   -5.9640 f         1 63F     -0.121667
     42 F46       -11.3320   -1.1840   -5.5870 f         1 63F     -0.121667
     43 S47        -5.8510   -2.1220   -1.0460 s6        1 63F      2.915000
     44 H1         -1.7420    0.3830   -0.5270 ha        1 63F      0.179000
     45 H2          2.5790    3.6940    4.0200 ha        1 63F      0.240000
     46 H3          0.5820    0.8540   -0.8380 ha        1 63F      0.229000
     47 H4          3.7340    3.9190    2.5730 ha        1 63F      0.240000
     48 H5         -7.8750    1.3690   -3.6710 ha        1 63F      0.193000
     49 H6        -10.7420   -1.8130   -3.3630 ha        1 63F      0.226000
     50 H7         -6.6900    0.5970   -1.6540 ha        1 63F      0.151000
     51 H8         -7.0840   -2.1690   -3.0050 h4        1 63F      0.223000
     52 H9         -9.0780   -3.4700    4.8320 hc        1 63F      0.203500
     53 H10        -8.5050   -4.9560    3.9760 hc        1 63F      0.203500
     54 H20        -8.8760   -7.5400   11.0660 ha        1 63F      0.002250
     55 H20A       -8.7330   -8.1360   10.7760 ha        1 63F      0.002250
     56 H21        -8.9020   -1.1580    4.2120 hc        1 63F      0.072500
     57 H21A      -10.5280   -1.8990    3.8710 hc        1 63F      0.072500
     58 H22        -9.1940   -2.0340    2.6390 hc        1 63F      0.072500
     59 H22A       -9.9910   -0.4320    2.9570 hc        1 63F      0.072500
     60 H23        -4.4710   -2.7600    4.7550 h4        1 63F      0.226000
     61 H23A       -7.1230   -2.7740    3.2640 hn        1 63F      0.282000
     62 H24        -5.4280   -1.3290    2.1050 ha        1 63F      0.167000
     63 H25       -10.1530   -6.4000    7.5250 hn        1 63F      0.292000
     64 H26        -3.5500   -0.5680    0.9290 hn        1 63F      0.293000
     65 H26A       -0.9730   -0.3320    2.4500 h4        1 63F      0.174000
     66 HN33       -5.8640   -5.4490    9.6830 h4        1 63F      0.194000
     67 HN34       -2.4550   -2.5290    6.0000 ha        1 63F      0.002250
     68 C17        -8.2410   -6.2530    8.1650 c2        1 63F      0.400000
     69 O37        -5.1270   -3.2050   -1.5410 o         1 63F     -0.941500
     70 O38        -5.0670   -1.1280   -0.3960 o         1 63F     -0.941500
     71 H19        -3.9440   -8.4320    7.7000 ha        1 63F      0.163000
     72 H332       -9.8150   -7.2220    9.0210 hn        1 63F      0.292000
     73 H342       -2.4310   -3.0850    5.6130 ha        1 63F      0.002250
     74 O40        -9.8480    0.3260   -4.7390 os        1 63F     -0.252000
     75 H19A       -4.1630   -9.1080    9.4260 ha        1 63F      0.163000
@<TRIPOS>BOND
     1    1    3 1   
     2    1   11 1   
     3    1   46 1   
     4    2    4 1   
     5    2   45 1   
     6    2   47 1   
     7    3   12 1   
     8    4   12 1   
     9    5    7 1   
    10    5   13 1   
    11    5   48 1   
    12    6    8 1   
    13    6   13 1   
    14    6   49 1   
    15    7   14 1   
    16    7   50 1   
    17    9   10 1   
    18    9   15 1   
    19   10   16 1   
    20   10   52 1   
    21   10   53 1   
    22   11   25 1   
    23   11   44 1   
    24   12   36 1   
    25   13   74 1   
    26   14   43 1   
    27   14   51 1   
    28   15   28 1   
    29   15   68 1   
    30   16   29 1   
    31   16   30 1   
    32   17   23 1   
    33   17   33 1   
    34   17   35 1   
    35   18   24 1   
    36   18   71 1   
    37   18   75 1   
    38   19   24 1   
    39   19   34 1   
    40   19   66 1   
    41   20   56 1   
    42   20   57 1   
    43   20   58 1   
    44   20   59 1   
    45   21   31 1   
    46   22   23 1   
    47   22   30 1   
    48   22   60 1   
    49   23   62 1   
    50   25   33 1   
    51   25   65 1   
    52   26   36 1   
    53   26   37 1   
    54   26   38 1   
    55   26   39 1   
    56   27   40 1   
    57   27   41 1   
    58   27   42 1   
    59   27   74 1   
    60   28   29 1   
    61   30   61 1   
    62   31   43 1   
    63   32   63 1   
    64   32   68 1   
    65   32   72 1   
    66   33   64 1   
    67   34   68 1   
    68   43   69 1   
    69   43   70 1   
    70   54   55 1   
    71   67   73 1   
@<TRIPOS>SUBSTRUCTURE
     1 63F         1 TEMP              0 ****  ****    0 ROOT
