@<TRIPOS>MOLECULE
molecule
   73    77     1     0     0
SMALL
bcc


@<TRIPOS>ATOM
      1 C1           0.0000     0.0000     0.0000 ca         1 63F      -0.076500
      2 C2          -0.0050     0.0000     2.3960 ca         1 63F      -0.076500
      3 C3           1.3810     0.0000     0.0000 ca         1 63F      -0.172500
      4 C4           1.3760     0.0000     2.4020 ca         1 63F      -0.172500
      5 C5          -7.6410     1.0370     0.0690 ca         1 63F      -0.199500
      6 C6          -9.1960    -0.6760    -0.5770 ca         1 63F      -0.199500
      7 C7          -6.5910     0.2040    -0.2640 ca         1 63F       0.024000
      8 C8          -8.1420    -1.5050    -0.9090 ca         1 63F       0.024000
      9 C9          -7.8100    -6.4960     4.9160 ca         1 63F      -0.133300
     10 C10         -7.2080    -6.2050     3.7050 ca         1 63F      -0.239300
     11 C11         -0.6930    -0.0000     1.1960 ca         1 63F      -0.142300
     12 C12          2.0730     0.0000     1.2020 ca         1 63F       0.132100
     13 C13         -8.9480     0.5980    -0.0870 ca         1 63F       0.178100
     14 C14         -6.8400    -1.0660    -0.7520 ca         1 63F      -0.332500
     15 C15         -7.7420    -5.5340     5.9320 ca         1 63F       0.283800
     16 C16         -6.5680    -4.9710     3.5710 ca         1 63F       0.557200
     17 C18         -4.0130    -1.6280     1.1890 c          1 63F       0.668100
     18 C19         -8.5480    -3.9460    11.0650 cx         1 63F      -0.137400
     19 C20         -9.7410    -3.2490    10.4080 cx         1 63F      -0.137400
     20 C21         -6.8950    -4.7240     1.2540 c3         1 63F       0.148800
     21 C22         -6.1360    -4.5260    -0.0630 c3         1 63F       0.242800
     22 C23         -5.3380    -3.3050     2.4560 c3         1 63F       0.165800
     23 C24         -4.5150    -3.0500     1.1880 c3         1 63F       0.175500
     24 C25         -9.2040    -4.5580     9.8260 cx         1 63F       0.152700
     25 C26         -2.2000    -0.0000     1.1930 c3         1 63F       0.167300
     26 C27          4.0780     0.0000     2.4800 c3         1 63F       0.795700
     27 C28        -11.3020     0.8980     0.0530 c3         1 63F       0.794700
     28 N29         -7.1120    -4.3860     5.7130 nb         1 63F      -0.284000
     29 N30         -6.5530    -4.1180     4.5880 nb         1 63F      -0.372000
     30 N31         -5.9510    -4.6380     2.3760 nh         1 63F      -0.693300
     31 N32         -5.3800    -3.2670     0.0190 n3         1 63F      -0.811500
     32 N33         -8.3030    -4.8690     8.2210 ns         1 63F      -0.615900
     33 N34         -2.6880    -1.3820     1.1920 ns         1 63F      -0.550900
     34 O35         -8.9470    -6.8480     7.4430 o          1 63F      -0.619100
     35 O36         -4.8010    -0.7060     1.1870 o          1 63F      -0.632100
     36 O39          3.4330     0.0000     1.2050 os         1 63F      -0.339900
     37 O40         -9.9830     1.4160     0.2400 os         1 63F      -0.338900
     38 F41          3.7010    -1.1410     3.1950 f          1 63F      -0.204300
     39 F42          5.4660    -0.0000     2.3000 f          1 63F      -0.204300
     40 F43          3.7020     1.1430     3.1940 f          1 63F      -0.204300
     41 F44        -11.4680    -0.2500     0.8370 f          1 63F      -0.202967
     42 F45        -12.2400     1.8630     0.4370 f          1 63F      -0.202967
     43 F46        -11.4910     0.5740    -1.2940 f          1 63F      -0.202967
     44 S47         -5.4980    -2.1250    -1.1750 sy         1 63F       1.436200
     45 H1          -0.5410    -0.0000    -0.9390 ha         1 63F       0.147500
     46 H2          -0.5500     0.0000     3.3320 ha         1 63F       0.147500
     47 H3           1.9230    -0.0000    -0.9380 ha         1 63F       0.152000
     48 H4           1.9140     0.0010     3.3420 ha         1 63F       0.152000
     49 H5          -7.4450     2.0310     0.4510 ha         1 63F       0.153000
     50 H6         -10.2160    -1.0200    -0.7000 ha         1 63F       0.153000
     51 H7          -5.5700     0.5460    -0.1430 ha         1 63F       0.163000
     52 H8          -8.3360    -2.5000    -1.2910 ha         1 63F       0.163000
     53 H9          -8.3200    -7.4390     5.0740 ha         1 63F       0.176000
     54 H10         -7.2310    -6.9140     2.8860 ha         1 63F       0.156000
     55 H19A        -7.5850    -3.4780    10.9020 hc         1 63F       0.091200
     56 H20        -10.6800    -3.3270    10.9430 hc         1 63F       0.091200
     57 H20A        -9.5070    -2.3550     9.8430 hc         1 63F       0.091200
     58 H21         -7.6480    -3.9520     1.3560 h1         1 63F       0.055200
     59 H21A        -7.3670    -5.6990     1.2540 h1         1 63F       0.055200
     60 H22         -5.4520    -5.3510    -0.2150 h1         1 63F       0.069700
     61 H22A        -6.8410    -4.4730    -0.8840 h1         1 63F       0.069700
     62 H23         -6.1150    -2.5550     2.5390 h1         1 63F       0.078200
     63 H23A        -4.6890    -3.2580     3.3220 h1         1 63F       0.078200
     64 H24         -3.6780    -3.7370     1.1540 h1         1 63F       0.068700
     65 H25         -9.8190    -5.4270    10.0210 h1         1 63F       0.108700
     66 H26         -2.5630     0.5100     2.0770 h1         1 63F       0.065700
     67 H26A        -2.5600     0.5110     0.3080 h1         1 63F       0.065700
     68 HN33        -7.4830    -4.3410     7.9970 hn         1 63F       0.287500
     69 HN34        -2.0380    -2.1420     1.2210 hn         1 63F       0.319500
     70 C17         -8.3700    -5.7960     7.2450 c          1 63F       0.573600
     71 O37         -5.8880    -2.8160    -2.3540 o          1 63F      -0.635800
     72 O38         -4.3210    -1.3330    -1.0920 o          1 63F      -0.635800
     73 H19         -8.7580    -4.4490    12.0020 hc         1 63F       0.091200
@<TRIPOS>BOND
     1     1     3 ar  
     2     1    11 ar  
     3     2     4 ar  
     4     2    11 ar  
     5     3    12 ar  
     6     4    12 ar  
     7     5     7 ar  
     8     5    13 ar  
     9     6     8 ar  
    10     6    13 ar  
    11     7    14 ar  
    12     8    14 ar  
    13     9    10 ar  
    14     9    15 ar  
    15    10    16 ar  
    16    11    25 1   
    17    12    36 1   
    18    13    37 1   
    19    14    44 1   
    20    15    70 1   
    21    15    28 ar  
    22    16    29 ar  
    23    16    30 1   
    24    70    32 1   
    25    70    34 2   
    26    17    23 1   
    27    17    33 1   
    28    17    35 2   
    29    18    19 1   
    30    18    24 1   
    31    19    24 1   
    32    20    21 1   
    33    20    30 1   
    34    21    31 1   
    35    22    23 1   
    36    22    30 1   
    37    23    31 1   
    38    24    32 1   
    39    25    33 1   
    40    26    36 1   
    41    26    38 1   
    42    26    39 1   
    43    26    40 1   
    44    27    37 1   
    45    27    41 1   
    46    27    42 1   
    47    27    43 1   
    48    28    29 ar  
    49    31    44 1   
    50    71    44 2   
    51    72    44 2   
    52     1    45 1   
    53     2    46 1   
    54     3    47 1   
    55     4    48 1   
    56     5    49 1   
    57     6    50 1   
    58     7    51 1   
    59     8    52 1   
    60     9    53 1   
    61    10    54 1   
    62    18    73 1   
    63    18    55 1   
    64    19    56 1   
    65    19    57 1   
    66    20    58 1   
    67    20    59 1   
    68    21    60 1   
    69    21    61 1   
    70    22    62 1   
    71    22    63 1   
    72    23    64 1   
    73    24    65 1   
    74    25    66 1   
    75    25    67 1   
    76    32    68 1   
    77    33    69 1   
@<TRIPOS>SUBSTRUCTURE
     1 63F         1 TEMP              0 ****  ****    0 ROOT
