@<TRIPOS>MOLECULE
63J
   64    67     1     0     0
SMALL
bcc


@<TRIPOS>ATOM
      1 C10          0.0000     0.0000     0.0000 c3         1 63J      -0.133700
      2 C13         -1.8520    -0.6260     3.2220 ca         1 63J      -0.069000
      3 C15         -0.5120    -2.5120     2.6340 ca         1 63J       0.409200
      4 C20         11.3060    -1.0220    -4.1720 ca         1 63J       0.297600
      5 C21         12.2680    -1.9680    -3.8500 ca         1 63J      -0.148300
      6 C22         13.5780    -1.7230    -4.2300 ca         1 63J      -0.234300
      7 C26         16.7750     1.1050    -6.6050 c3         1 63J      -0.039100
      8 C28         17.0450     3.5870    -6.7810 ca         1 63J      -0.108000
      9 C01          9.3790    -0.0440    -2.9560 c3         1 63J      -0.029400
     10 C02          7.9200    -0.2660    -2.5520 c3         1 63J      -0.031400
     11 C04          5.9930     0.7120    -1.3360 cc         1 63J       0.398700
     12 N05          5.5800     0.1360    -0.2520 nd         1 63J      -0.247000
     13 N06          4.3300     0.0520    -0.0980 nd         1 63J      -0.292000
     14 C07          3.5720     0.5490    -1.0300 cc         1 63J       0.380300
     15 N08          2.1810     0.5490    -1.0300 ns         1 63J      -0.072400
     16 C09          1.5070     0.0000     0.0000 c          1 63J       0.535100
     17 C11         -0.5020    -0.6680     1.2540 ca         1 63J       0.381600
     18 C12         -1.3920     0.0000     2.0730 ca         1 63J      -0.213300
     19 C14         -1.3990    -1.9050     3.5050 ca         1 63J      -0.219300
     20 N16         -0.0990    -1.8890     1.5480 nb         1 63J      -0.540000
     21 O17          2.1140    -0.4940     0.9270 o          1 63J      -0.532100
     22 S18          4.5710     1.2020    -2.2590 ss         1 63J      -0.402800
     23 C19          9.8700    -1.2400    -3.7730 c3         1 63J      -0.056700
     24 C23         13.8470    -0.5390    -4.9150 ca         1 63J       0.314200
     25 N24         15.1490    -0.2450    -5.3210 ns         1 63J      -0.114400
     26 C25         15.3900     0.8490    -6.0700 c          1 63J       0.534100
     27 C27         16.7770     2.3820    -7.4050 ca         1 63J      -0.036300
     28 C29         17.0480     4.7600    -7.5130 ca         1 63J      -0.047000
     29 C30         16.7880     4.7320    -8.8690 ca         1 63J      -0.195000
     30 C31         16.5240     3.5230    -9.4970 ca         1 63J       0.140100
     31 C32         16.5100     2.3490    -8.7590 ca         1 63J      -0.100000
     32 O33         16.2670     3.4920   -10.8320 os         1 63J      -0.314900
     33 C34         16.2860     4.7410   -11.5250 c3         1 63J       0.756700
     34 F35         17.5500     5.3270   -11.3990 f          1 63J      -0.197967
     35 F36         16.0050     4.5270   -12.8790 f          1 63J      -0.197967
     36 F37         15.3210     5.5930   -10.9770 f          1 63J      -0.197967
     37 O38         14.4920     1.6270    -6.3140 o          1 63J      -0.544100
     38 N39         12.8610     0.3050    -5.1780 nb         1 63J      -0.264000
     39 N40         11.6510     0.0720    -4.8220 nb         1 63J      -0.246000
     40 H1          -0.3610     1.0210    -0.0350 hc         1 63J       0.034200
     41 H2          -0.3610    -0.5410    -0.8670 hc         1 63J       0.034200
     42 H3          -2.5490    -0.1260     3.8850 ha         1 63J       0.107000
     43 H4          -0.1560    -3.5130     2.8450 h4         1 63J      -0.018900
     44 H5          12.0030    -2.8730    -3.3150 ha         1 63J       0.121000
     45 H6          14.3680    -2.4290    -4.0040 ha         1 63J       0.119000
     46 H7          17.4700     1.1950    -5.7790 hc         1 63J       0.031700
     47 H8          17.0750     0.2800    -7.2400 hc         1 63J       0.031700
     48 H10          9.9840     0.0870    -2.0680 hc         1 63J       0.027700
     49 H11          9.4510     0.8420    -3.5760 hc         1 63J       0.027700
     50 H12          7.8440    -1.1660    -1.9540 hc         1 63J       0.021700
     51 H13          7.3110    -0.3700    -3.4410 hc         1 63J       0.021700
     52 H16          1.6810     0.9540    -1.7960 hn         1 63J       0.172500
     53 H17         -1.7250     1.0000     1.8220 ha         1 63J       0.111000
     54 H18         -1.7360    -2.4230     4.3940 ha         1 63J       0.112000
     55 H19          9.2600    -1.3450    -4.6630 hc         1 63J       0.023700
     56 H20          9.7940    -2.1410    -3.1760 hc         1 63J       0.023700
     57 H21         15.8970    -0.8690    -5.0910 hn         1 63J       0.168500
     58 H22         17.2560     5.7030    -7.0210 ha         1 63J       0.106000
     59 H23         16.7950     5.6520    -9.4420 ha         1 63J       0.130000
     60 H24         16.3050     1.4040    -9.2480 ha         1 63J       0.119000
     61 C03          7.4290     0.9310    -1.7350 c3         1 63J      -0.022700
     62 H9          17.2500     3.6120    -5.7180 ha         1 63J       0.108000
     63 H14          8.0390     1.0350    -0.8450 hc         1 63J       0.032700
     64 H15          7.5050     1.8310    -2.3320 hc         1 63J       0.032700
@<TRIPOS>BOND
     1     1    16 1   
     2     1    17 1   
     3     1    40 1   
     4     1    41 1   
     5     2    18 ar  
     6     2    19 ar  
     7     2    42 1   
     8     3    19 ar  
     9     3    20 ar  
    10     3    43 1   
    11     4     5 ar  
    12     4    23 1   
    13     4    39 ar  
    14     5     6 ar  
    15     5    44 1   
    16     6    24 ar  
    17     6    45 1   
    18     7    26 1   
    19     7    27 1   
    20     7    46 1   
    21     7    47 1   
    22     8    27 ar  
    23     8    28 ar  
    24     8    62 1   
    25     9    10 1   
    26     9    23 1   
    27     9    48 1   
    28     9    49 1   
    29    10    50 1   
    30    10    51 1   
    31    10    61 1   
    32    11    12 2   
    33    11    22 1   
    34    11    61 1   
    35    12    13 1   
    36    13    14 2   
    37    14    15 1   
    38    14    22 1   
    39    15    16 1   
    40    15    52 1   
    41    16    21 2   
    42    17    18 ar  
    43    17    20 ar  
    44    18    53 1   
    45    19    54 1   
    46    23    55 1   
    47    23    56 1   
    48    24    25 1   
    49    24    38 ar  
    50    25    26 1   
    51    25    57 1   
    52    26    37 2   
    53    27    31 ar  
    54    28    29 ar  
    55    28    58 1   
    56    29    30 ar  
    57    29    59 1   
    58    30    31 ar  
    59    30    32 1   
    60    31    60 1   
    61    32    33 1   
    62    33    34 1   
    63    33    35 1   
    64    33    36 1   
    65    38    39 ar  
    66    61    63 1   
    67    61    64 1   
@<TRIPOS>SUBSTRUCTURE
     1 63J         1 TEMP              0 ****  ****    0 ROOT
