@<TRIPOS>MOLECULE
63K
   61    69     1     0     0
SMALL
bcc


@<TRIPOS>ATOM
      1 C6           0.0000     0.0000     0.0000 ca         1 63K      -0.046000
      2 C10          0.0090     0.0130     2.4120 ca         1 63K      -0.046000
      3 C20         -8.5650    -4.5640     4.9910 ca         1 63K      -0.053000
      4 C7           1.3800     0.0000     0.0000 ca         1 63K      -0.135000
      5 C9           1.3880     0.0010     2.4020 ca         1 63K      -0.135000
      6 C19         -7.3120    -4.0440     4.6520 ca         1 63K      -0.045000
      7 C2          -2.8790     0.0020    -0.0130 c2         1 63K      -0.205000
      8 C1          -4.2380    -0.0090     0.0020 c2         1 63K       0.043000
      9 C21         -7.8120    -2.0080     5.8850 ca         1 63K       0.046000
     10 C5          -0.6940     0.0060     1.2080 ca         1 63K      -0.066000
     11 C23         -9.4390    -3.8170     5.7700 ca         1 63K      -0.039000
     12 C8           2.0750     0.0000     1.1980 ca         1 63K       0.093000
     13 C22         -9.0580    -2.5230     6.2230 ca         1 63K      -0.394000
     14 C18         -6.9340    -2.7610     5.1010 ca         1 63K      -0.147000
     15 C3          -2.1740    -0.5560     1.0360 c2         1 63K       0.088000
     16 C11         -4.9160    -0.5810     1.0740 c2         1 63K      -0.286000
     17 C13         -5.1260    -1.6000     2.9850 c2         1 63K      -0.332000
     18 C25        -11.3400    -3.0090     7.0650 c2         1 63K      -0.295000
     19 C28        -13.7490    -3.7720     6.7810 c2         1 63K       0.241000
     20 C34        -18.7970    -5.0690     8.3000 DU         1 63K      -0.252000
     21 C38        -17.9820    -7.0570     7.3150 c3         1 63K      -0.293000
     22 C35        -20.2290    -5.5650     8.1140 c3         1 63K       0.049000
     23 C37        -19.4150    -7.5520     7.1310 c3         1 63K       0.067000
     24 C31        -15.9490    -5.0460     6.7940 c3         1 63K      -0.209000
     25 C32        -17.0970    -5.3320     7.7750 DU         1 63K      -0.117000
     26 N24        -10.8980    -4.1230     6.3100 n2         1 63K      -0.145000
     27 N4          -2.8260    -1.1070     2.0680 n2         1 63K      -0.181000
     28 N14         -6.3400    -1.3580     2.5260 n2         1 63K      -0.087000
     29 N15         -6.2190    -0.7230     1.3360 n2         1 63K      -0.064000
     30 N12         -4.2330    -1.1180     2.0850 na         1 63K       0.495000
     31 N27        -12.6970    -3.1760     7.6080 ns         1 63K       0.068000
     32 N29        -15.0890    -3.9900     7.3420 ns         1 63K      -0.100000
     33 N33        -17.9060    -5.6350     7.3420 nk         1 63K       0.246000
     34 O30        -13.5070    -4.1180     5.6780 o          1 63K      -0.314000
     35 O36        -20.3040    -6.9870     8.0870 os         1 63K      -0.250000
     36 F17          3.4380     0.0570     1.1760 f          1 63K      -0.094000
     37 S26        -10.2180    -1.9520     7.0510 ss         1 63K       0.566000
     38 S16         -5.2100    -2.2580     4.6840 ss         1 63K       0.187000
     39 H1          -0.5420    -0.0000    -0.9380 ha         1 63K       0.119500
     40 H2          -0.5260     0.0130     3.3540 ha         1 63K       0.119500
     41 H3          -8.8540    -5.5490     4.6460 ha         1 63K       0.122000
     42 H4           1.9220    -0.0050    -0.9380 ha         1 63K       0.124500
     43 H5           1.9360     0.0060     3.3360 ha         1 63K       0.124500
     44 H6          -6.6300    -4.6270     4.0440 ha         1 63K       0.122000
     45 H7          -2.3510     0.4840    -0.8260 ha         1 63K       0.138000
     46 H8          -4.7920     0.4280    -0.8190 ha         1 63K       0.130000
     47 H9          -7.5210    -1.0220     6.2290 ha         1 63K       0.122000
     48 H11        -18.7840    -3.9900     8.1960 hx         1 63K       0.090000
     49 H12        -17.3760    -7.4240     6.4960 hx         1 63K       0.077000
     50 H13        -17.5940    -7.4460     8.2490 hx         1 63K       0.077000
     51 H14        -20.6160    -5.1760     7.1800 h1         1 63K       0.050500
     52 H15        -20.8360    -5.1970     8.9330 h1         1 63K       0.050500
     53 H16        -19.4290    -8.6300     7.2340 h1         1 63K       0.050000
     54 H17        -19.7530    -7.2840     6.1370 h1         1 63K       0.050000
     55 H18        -16.1680    -4.1440     6.2350 h1         1 63K       0.102000
     56 H19        -15.8440    -5.8790     6.1090 h1         1 63K       0.102000
     57 H20        -16.6960    -5.4540     8.7740 hx         1 63K      -0.003000
     58 H21        -17.7950    -4.5040     7.7650 DU         1 63K       0.114000
     59 H22        -12.9100    -2.8490     8.5300 hn         1 63K       0.080000
     60 H23        -15.4340    -3.3860     8.0610 hn         1 63K       0.094000
     61 H10        -18.4600    -5.3360     9.2930 hx         1 63K       0.090000
@<TRIPOS>BOND
     1     1     4 1   
     2     1    10 1   
     3     1    39 1   
     4     2     5 1   
     5     2    10 1   
     6     2    40 1   
     7     3     6 1   
     8     3    11 1   
     9     3    41 1   
    10     4    12 1   
    11     4    42 1   
    12     5    12 1   
    13     5    43 1   
    14     6    14 1   
    15     6    44 1   
    16     7     8 1   
    17     7    15 1   
    18     7    45 1   
    19     8    16 1   
    20     8    46 1   
    21     9    13 1   
    22     9    14 1   
    23     9    47 1   
    24    10    15 1   
    25    11    13 1   
    26    11    26 1   
    27    12    36 1   
    28    13    37 1   
    29    14    38 1   
    30    15    27 1   
    31    16    29 1   
    32    16    30 1   
    33    17    28 1   
    34    17    30 1   
    35    17    38 1   
    36    18    26 1   
    37    18    31 1   
    38    18    37 1   
    39    19    31 1   
    40    19    32 1   
    41    19    34 1   
    42    20    22 1   
    43    20    25 1   
    44    20    33 1   
    45    20    48 1   
    46    20    58 1   
    47    20    61 1   
    48    21    23 1   
    49    21    33 1   
    50    21    49 1   
    51    21    50 1   
    52    22    35 1   
    53    22    51 1   
    54    22    52 1   
    55    23    35 1   
    56    23    53 1   
    57    23    54 1   
    58    24    25 1   
    59    24    32 1   
    60    24    55 1   
    61    24    56 1   
    62    25    33 1   
    63    25    57 1   
    64    25    58 1   
    65    27    30 1   
    66    28    29 1   
    67    31    59 1   
    68    32    60 1   
    69    33    58 1   
@<TRIPOS>SUBSTRUCTURE
     1 63K         1 TEMP              0 ****  ****    0 ROOT
