@<TRIPOS>MOLECULE
molecule
   61    66     1     0     0
SMALL
bcc


@<TRIPOS>ATOM
      1 C6           0.0000     0.0000     0.0000 ca         1 63K      -0.072500
      2 C10          0.0090     0.0130     2.4120 ca         1 63K      -0.072500
      3 C20         -8.5650    -4.5640     4.9910 ca         1 63K      -0.080000
      4 C7           1.3800     0.0000     0.0000 ca         1 63K      -0.169000
      5 C9           1.3880     0.0010     2.4020 ca         1 63K      -0.169000
      6 C19         -7.3120    -4.0440     4.6520 ca         1 63K      -0.077000
      7 C2          -2.8790     0.0020    -0.0130 cc         1 63K      -0.256300
      8 C1          -4.2380    -0.0090     0.0020 cd         1 63K      -0.022000
      9 C21         -7.8120    -2.0080     5.8850 ca         1 63K      -0.002000
     10 C5          -0.6940     0.0060     1.2080 ca         1 63K      -0.157500
     11 C23         -9.4390    -3.8170     5.7700 ca         1 63K       0.089400
     12 C8           2.0750     0.0000     1.1980 ca         1 63K       0.150900
     13 C22         -9.0580    -2.5230     6.2230 ca         1 63K      -0.271100
     14 C18         -6.9340    -2.7610     5.1010 ca         1 63K       0.035900
     15 C3          -2.1740    -0.5560     1.0360 cc         1 63K       0.464800
     16 C11         -4.9160    -0.5810     1.0740 cd         1 63K      -0.114300
     17 C13         -5.1260    -1.6000     2.9850 cd         1 63K       0.379700
     18 C25        -11.3400    -3.0090     7.0650 cd         1 63K       0.224800
     19 C28        -13.7490    -3.7720     6.7810 c          1 63K       0.794100
     20 C34        -18.7970    -5.0690     8.3000 c3         1 63K       0.006800
     21 C38        -17.9820    -7.0570     7.3150 c3         1 63K       0.006800
     22 C35        -20.2290    -5.5650     8.1140 c3         1 63K       0.133400
     23 C37        -19.4150    -7.5520     7.1310 c3         1 63K       0.133400
     24 C31        -15.9490    -5.0460     6.7940 c3         1 63K       0.029000
     25 C32        -17.0970    -5.3320     7.7750 c3         1 63K       0.151800
     26 N24        -10.8980    -4.1230     6.3100 nc         1 63K      -0.553100
     27 N4          -2.8260    -1.1070     2.0680 nd         1 63K      -0.464800
     28 N14         -6.3400    -1.3580     2.5260 nc         1 63K      -0.381700
     29 N15         -6.2190    -0.7230     1.3360 nc         1 63K      -0.081000
     30 N12         -4.2330    -1.1180     2.0850 na         1 63K       0.125300
     31 N27        -12.6970    -3.1760     7.6080 ns         1 63K      -0.506400
     32 N29        -15.0890    -3.9900     7.3420 ns         1 63K      -0.644900
     33 N33        -17.9060    -5.6350     7.3420 n3         1 63K      -0.510600
     34 O30        -13.5070    -4.1180     5.6780 o          1 63K      -0.521100
     35 O36        -20.3040    -6.9870     8.0870 os         1 63K      -0.405600
     36 F17          3.4380     0.0570     1.1760 f          1 63K      -0.135900
     37 S26        -10.2180    -1.9520     7.0510 ss         1 63K       0.363900
     38 S16         -5.2100    -2.2580     4.6840 ss         1 63K      -0.153100
     39 H1          -0.5420    -0.0000    -0.9380 ha         1 63K       0.150000
     40 H2          -0.5260     0.0130     3.3540 ha         1 63K       0.150000
     41 H3          -8.8540    -5.5490     4.6460 ha         1 63K       0.153000
     42 H4           1.9220    -0.0050    -0.9380 ha         1 63K       0.153500
     43 H5           1.9360     0.0060     3.3360 ha         1 63K       0.153500
     44 H6          -6.6300    -4.6270     4.0440 ha         1 63K       0.151000
     45 H7          -2.3510     0.4840    -0.8260 ha         1 63K       0.155000
     46 H8          -4.7920     0.4280    -0.8190 ha         1 63K       0.169000
     47 H9          -7.5210    -1.0220     6.2290 ha         1 63K       0.147000
     48 H11        -18.7840    -3.9900     8.1960 h1         1 63K       0.063450
     49 H12        -17.3760    -7.4240     6.4960 h1         1 63K       0.063450
     50 H13        -17.5940    -7.4460     8.2490 h1         1 63K       0.063450
     51 H14        -20.6160    -5.1760     7.1800 h1         1 63K       0.050700
     52 H15        -20.8360    -5.1970     8.9330 h1         1 63K       0.050700
     53 H16        -19.4290    -8.6300     7.2340 h1         1 63K       0.050700
     54 H17        -19.7530    -7.2840     6.1370 h1         1 63K       0.050700
     55 H18        -16.1680    -4.1440     6.2350 h1         1 63K       0.092200
     56 H19        -15.8440    -5.8790     6.1090 h1         1 63K       0.092200
     57 H20        -16.6960    -5.4540     8.7740 h1         1 63K       0.034700
     58 H21        -17.7950    -4.5040     7.7650 h1         1 63K       0.034700
     59 H22        -12.9100    -2.8490     8.5300 hn         1 63K       0.322500
     60 H23        -15.4340    -3.3860     8.0610 hn         1 63K       0.315500
     61 H10        -18.4600    -5.3360     9.2930 h1         1 63K       0.063450
@<TRIPOS>BOND
     1    38    17 1
     2    38    14 1
     3    28    17 2
     4    28    29 1
     5    17    30 1
     6    29    16 2
     7    14     6 ar
     8    14     9 ar
     9     6     3 ar
    10    30    16 1
    11    30    27 1
    12    16     8 1
    13     9    13 ar
    14    27    15 2
    15     3    11 ar
    16     8     7 2
    17    15     7 1
    18    15    10 1
    19    13    11 ar
    20    13    37 1
    21    11    26 1
    22    10     2 ar
    23    10     1 ar
    24     2     5 ar
    25     1     4 ar
    26    37    18 1
    27    26    18 2
    28     5    12 ar
    29     4    12 ar
    30    18    31 1
    31    12    36 1
    32    31    19 1
    33    34    19 2
    34    19    32 1
    35    32    24 1
    36    24    25 1
    37    25    33 1
    38    33    20 1
    39    33    21 1
    40    20    22 1
    41    22    35 1
    42    21    23 1
    43    23    35 1
    44     1    39 1
    45     2    40 1
    46     3    41 1
    47     4    42 1
    48     5    43 1
    49     6    44 1
    50     7    45 1
    51     8    46 1
    52     9    47 1
    53    20    61 1
    54    20    48 1
    55    21    49 1
    56    21    50 1
    57    22    51 1
    58    22    52 1
    59    23    53 1
    60    23    54 1
    61    24    55 1
    62    24    56 1
    63    25    57 1
    64    25    58 1
    65    31    59 1
    66    32    60 1
@<TRIPOS>SUBSTRUCTURE
     1 63K         1 TEMP              0 ****  ****    0 ROOT
