@<TRIPOS>MOLECULE
molecule
   25    25     1     0     0
SMALL
bcc


@<TRIPOS>ATOM
      1 C1           0.0000     0.0000     0.0000 cc         1 63L      -0.463900
      2 C2           1.3930     0.0000     0.0000 cd         1 63L       0.338300
      3 C3          -0.4120    -0.0010     1.4070 cc         1 63L       0.572600
      4 N6           2.2090     0.0000    -1.1080 nv         1 63L      -0.891200
      5 C12         -1.8470    -0.0000     3.8090 c3         1 63L      -0.019000
      6 C4          -0.8780     0.0050    -1.1740 c          1 63L       0.551700
      7 N5           1.7970     0.0000     1.3000 n          1 63L       0.044300
      8 N7           0.6770     0.0000     2.1340 nd         1 63L      -0.579800
      9 S8          -2.0680    -0.0000     2.0080 ss         1 63L      -0.188400
     10 N9          -1.2820     1.1750    -1.7070 nz         1 63L      -0.678400
     11 O10         -1.2430    -1.0470    -1.6650 o          1 63L      -0.352100
     12 N13          3.3590     0.0000     3.0340 nz         1 63L      -0.660400
     13 O14          3.9820    -0.0000     0.9020 o          1 63L      -0.444100
     14 H1           2.0280    -0.6330    -1.8620 hn         1 63L       0.487800
     15 H2           2.9700     0.6470    -1.1680 hn         1 63L       0.487800
     16 H3          -1.2940     0.8830     4.1050 h1         1 63L       0.096033
     17 H4          -1.3000    -0.8870     4.1060 h1         1 63L       0.096033
     18 H5          -2.8170     0.0040     4.2920 h1         1 63L       0.096033
     19 H6          -2.2790     1.2440    -1.6440 hn         1 63L       0.487133
     20 H7          -0.8630     1.9330    -1.2060 hn         1 63L       0.487133
     21 H8           2.9670    -0.8170     3.4580 hn         1 63L       0.500800
     22 H9           4.3530    -0.0050     3.1540 hn         1 63L       0.500800
     23 C11          3.0790    -0.0000     1.7150 c          1 63L       0.541900
     24 H93         -1.0170     1.2110    -2.6710 hn         1 63L       0.487133
     25 H133         2.9570     0.8170     3.4500 hn         1 63L       0.500800
@<TRIPOS>BOND
     1    10     6 1
     2     9     3 1
     3     9     5 1
     4     6    11 2
     5     6     1 1
     6     3     1 1
     7     3     8 2
     8     1     2 2
     9     8     7 1
    10     2     7 1
    11     2     4 1
    12     7    23 1
    13    23    12 1
    14    23    13 2
    15     4    14 1
    16     4    15 1
    17     5    16 1
    18     5    17 1
    19     5    18 1
    20    10    19 1
    21    10    20 1
    22    12    21 1
    23    12    22 1
    24    24    10 1
    25    25    12 1
@<TRIPOS>SUBSTRUCTURE
     1 63L         1 TEMP              0 ****  ****    0 ROOT
