@<TRIPOS>MOLECULE
63M
   45    47     1     0     0
SMALL
bcc


@<TRIPOS>ATOM
      1 C4           0.0000     0.0000     0.0000 c3         1 63M      -0.016433
      2 C14          0.6380     3.5610     5.7710 cc         1 63M       0.560200
      3 C6           1.6450     0.9790     2.2270 c          1 63M       0.646300
      4 C8           2.0360     0.9170     3.6370 cc         1 63M      -0.435800
      5 C9           2.8790    -0.0400     4.2330 cc         1 63M       0.517500
      6 C12          1.6410     1.8050     4.6580 cd         1 63M       0.280500
      7 C3           2.0400    -1.2500    -0.7210 c3         1 63M      -0.016433
      8 C1           2.0400     1.2490    -0.7230 c3         1 63M      -0.016433
      9 C2           1.5310     0.0000     0.0000 c3         1 63M       0.015400
     10 N5           2.0190     0.0000     1.3810 ns         1 63M      -0.199900
     11 O7           0.9820     1.9160     1.8210 o          1 63M      -0.646100
     12 N10          2.9930     0.2340     5.5050 nd         1 63M      -0.738100
     13 N11          2.2380     1.3730     5.8070 na         1 63M       0.519200
     14 N13          0.8570     2.8830     4.6580 nd         1 63M      -0.555000
     15 C15          1.2380     3.1440     6.9760 cc         1 63M      -0.369300
     16 C16          2.0330     2.0490     6.9760 cd         1 63M      -0.117300
     17 S18         -0.3460     5.5990     7.1190 sy         1 63M       1.072200
     18 O19         -1.2440     6.6490     6.7860 o          1 63M      -0.572300
     19 O20         -0.5750     4.6910     8.1880 o          1 63M      -0.572300
     20 C21          1.2110     6.3590     7.4370 cc         1 63M      -0.309800
     21 C22          1.7020     7.4610     6.8240 cd         1 63M      -0.205300
     22 C23          2.9620     7.7320     7.3680 cd         1 63M       0.374200
     23 N24          3.2180     6.8250     8.2760 nc         1 63M      -0.615800
     24 N25          2.1270     5.9500     8.3420 na         1 63M       0.570400
     25 C26          2.0010     4.7940     9.2320 c3         1 63M      -0.072400
     26 H1          -0.3610     1.0080     0.1660 hc         1 63M       0.015144
     27 H2          -0.3610    -0.3610    -0.9560 hc         1 63M       0.015144
     28 H3          -0.3610    -0.6470     0.7900 hc         1 63M       0.015144
     29 H4           3.3570    -0.8670     3.7200 h4         1 63M       0.011800
     30 H5           1.6720    -1.2540    -1.7400 hc         1 63M       0.015144
     31 H6           3.1230    -1.2460    -0.7280 hc         1 63M       0.015144
     32 H7           1.6850    -2.1340    -0.2060 hc         1 63M       0.015144
     33 H8           1.4250     2.0990    -0.4510 hc         1 63M       0.015144
     34 H9           1.9870     1.0930    -1.7940 hc         1 63M       0.015144
     35 H10          3.0670     1.4390    -0.4350 hc         1 63M       0.015144
     36 H11          2.6510    -0.7120     1.6880 hn         1 63M       0.169500
     37 H12          1.0630     3.6930     7.8940 ha         1 63M       0.199000
     38 H13          2.5030     1.7130     7.8930 h4         1 63M       0.146000
     39 H14         -0.6680     4.9250     4.9190 hn         1 63M       0.368800
     40 H15          1.2060     8.0330     6.0490 ha         1 63M       0.144000
     41 H16          3.6130     8.5500     7.0850 h4         1 63M       0.012100
     42 H17          2.5460     3.9560     8.8150 h1         1 63M       0.057367
     43 H18          0.9550     4.5300     9.3350 h1         1 63M       0.057367
     44 H19          2.4080     5.0410    10.2050 h1         1 63M       0.057367
     45 N17         -0.1720     4.6800     5.7530 nu         1 63M      -0.455800
@<TRIPOS>BOND
     1     1     9 1   
     2     1    26 1   
     3     1    27 1   
     4     1    28 1   
     5     2    14 2   
     6     2    15 1   
     7     2    45 1   
     8     3     4 1   
     9     3    10 1   
    10     3    11 2   
    11     4     5 1   
    12     4     6 2   
    13     5    12 2   
    14     5    29 1   
    15     6    13 1   
    16     6    14 1   
    17     7     9 1   
    18     7    30 1   
    19     7    31 1   
    20     7    32 1   
    21     8     9 1   
    22     8    33 1   
    23     8    34 1   
    24     8    35 1   
    25     9    10 1   
    26    10    36 1   
    27    12    13 1   
    28    13    16 1   
    29    15    16 2   
    30    15    37 1   
    31    16    38 1   
    32    17    18 2   
    33    17    19 2   
    34    17    20 1   
    35    17    45 1   
    36    20    21 2   
    37    20    24 1   
    38    21    22 1   
    39    21    40 1   
    40    22    23 2   
    41    22    41 1   
    42    23    24 1   
    43    24    25 1   
    44    25    42 1   
    45    25    43 1   
    46    25    44 1   
    47    39    45 1   
@<TRIPOS>SUBSTRUCTURE
     1 63M         1 TEMP              0 ****  ****    0 ROOT
