@<TRIPOS>MOLECULE
molecule
   45    47     1     0     0
SMALL
bcc


@<TRIPOS>ATOM
      1 C4           0.0000     0.0000     0.0000 c3         1 63M      -0.100767
      2 C14          0.6380     3.5610     5.7710 cc         1 63M       0.725200
      3 C6           1.6450     0.9790     2.2270 c          1 63M       0.713300
      4 C8           2.0360     0.9170     3.6370 cc         1 63M      -0.399800
      5 C9           2.8790    -0.0400     4.2330 cc         1 63M       0.443500
      6 C12          1.6410     1.8050     4.6580 cd         1 63M       0.490500
      7 C3           2.0400    -1.2500    -0.7210 c3         1 63M      -0.100767
      8 C1           2.0400     1.2490    -0.7230 c3         1 63M      -0.100767
      9 C2           1.5310     0.0000     0.0000 c3         1 63M       0.127400
     10 N5           2.0190     0.0000     1.3810 ns         1 63M      -0.583900
     11 O7           0.9820     1.9160     1.8210 o          1 63M      -0.603100
     12 N10          2.9930     0.2340     5.5050 nd         1 63M      -0.572100
     13 N11          2.2380     1.3730     5.8070 na         1 63M       0.027200
     14 N13          0.8570     2.8830     4.6580 nd         1 63M      -0.692000
     15 C15          1.2380     3.1440     6.9760 cc         1 63M      -0.386300
     16 C16          2.0330     2.0490     6.9760 cd         1 63M       0.053700
     17 S18         -0.3460     5.5990     7.1190 sy         1 63M       1.441200
     18 O19         -1.2440     6.6490     6.7860 o          1 63M      -0.613300
     19 O20         -0.5750     4.6910     8.1880 o          1 63M      -0.613300
     20 C21          1.2110     6.3590     7.4370 cc         1 63M      -0.294800
     21 C22          1.7020     7.4610     6.8240 cd         1 63M      -0.220300
     22 C23          2.9620     7.7320     7.3680 cd         1 63M       0.319200
     23 N24          3.2180     6.8250     8.2760 nc         1 63M      -0.466800
     24 N25          2.1270     5.9500     8.3420 na         1 63M       0.123400
     25 C26          2.0010     4.7940     9.2320 c3         1 63M       0.017600
     26 H1          -0.3610     1.0080     0.1660 hc         1 63M       0.044478
     27 H2          -0.3610    -0.3610    -0.9560 hc         1 63M       0.044478
     28 H3          -0.3610    -0.6470     0.7900 hc         1 63M       0.044478
     29 H4           3.3570    -0.8670     3.7200 h4         1 63M       0.062800
     30 H5           1.6720    -1.2540    -1.7400 hc         1 63M       0.044478
     31 H6           3.1230    -1.2460    -0.7280 hc         1 63M       0.044478
     32 H7           1.6850    -2.1340    -0.2060 hc         1 63M       0.044478
     33 H8           1.4250     2.0990    -0.4510 hc         1 63M       0.044478
     34 H9           1.9870     1.0930    -1.7940 hc         1 63M       0.044478
     35 H10          3.0670     1.4390    -0.4350 hc         1 63M       0.044478
     36 H11          2.6510    -0.7120     1.6880 hn         1 63M       0.304500
     37 H12          1.0630     3.6930     7.8940 ha         1 63M       0.195000
     38 H13          2.5030     1.7130     7.8930 h4         1 63M       0.183000
     39 H14         -0.6680     4.9250     4.9190 hn         1 63M       0.491800
     40 H15          1.2060     8.0330     6.0490 ha         1 63M       0.171000
     41 H16          3.6130     8.5500     7.0850 h4         1 63M       0.060100
     42 H17          2.5460     3.9560     8.8150 h1         1 63M       0.078367
     43 H18          0.9550     4.5300     9.3350 h1         1 63M       0.078367
     44 H19          2.4080     5.0410    10.2050 h1         1 63M       0.078367
     45 N17         -0.1720     4.6800     5.7530 nu         1 63M      -0.839800
@<TRIPOS>BOND
     1    18    17 2   
     2    17    45 1   
     3    17    19 2   
     4    17    20 1   
     5    25    24 1   
     6    45     2 1   
     7    24    20 1   
     8    24    23 1   
     9    20    21 2   
    10    15     2 1   
    11    15    16 2   
    12     2    14 2   
    13    21    22 1   
    14    23    22 2   
    15    16    13 1   
    16    14     6 1   
    17    13     6 1   
    18    13    12 1   
    19     6     4 2   
    20     8     9 1   
    21    10     9 1   
    22    10     3 1   
    23    12     5 2   
    24     4     3 1   
    25     4     5 1   
    26     9     1 1   
    27     9     7 1   
    28     3    11 2   
    29     1    26 1   
    30     1    27 1   
    31     1    28 1   
    32     5    29 1   
    33     7    30 1   
    34     7    31 1   
    35     7    32 1   
    36     8    33 1   
    37     8    34 1   
    38     8    35 1   
    39    10    36 1   
    40    15    37 1   
    41    16    38 1   
    42    45    39 1   
    43    21    40 1   
    44    22    41 1   
    45    25    42 1   
    46    25    43 1   
    47    25    44 1   
@<TRIPOS>SUBSTRUCTURE
     1 63M         1 TEMP              0 ****  ****    0 ROOT
