@<TRIPOS>MOLECULE
63N
   50    54     1     0     0
SMALL
bcc


@<TRIPOS>ATOM
      1 C14          0.0000     0.0000     0.0000 ca         1 63N       0.518200
      2 C5          -6.3380    -0.5200    -2.6540 cc         1 63N       0.249700
      3 C7          -4.8160    -0.3330    -1.1140 ca         1 63N      -0.090900
      4 C8          -4.1600    -0.3320    -2.3620 ca         1 63N      -0.203200
      5 C9          -2.7760    -0.2220    -2.3880 ca         1 63N      -0.279300
      6 C10         -2.0930    -0.1120    -1.1870 ca         1 63N       0.485200
      7 C12         -4.0510    -0.2220     0.0460 ca         1 63N       0.498200
      8 C3          -5.4980    -1.8270    -5.3050 c3         1 63N      -0.011600
      9 C1          -5.6980     0.6610    -5.4180 c3         1 63N      -0.011600
     10 N4          -5.1470    -0.4540    -3.3120 na         1 63N       0.302700
     11 N6          -6.1440    -0.4470    -1.3690 nd         1 63N      -0.493100
     12 N11         -2.7410    -0.1120    -0.0280 nb         1 63N      -0.579000
     13 N13         -0.7040    -0.0000    -1.1950 nu         1 63N      -0.400600
     14 C15          1.3960     0.0000     0.0000 ca         1 63N      -0.428600
     15 C16          2.0560     0.0000     1.2150 ca         1 63N       0.481200
     16 N17          1.3500     0.0010     2.3350 nb         1 63N      -0.674000
     17 C18          0.0240     0.0010     2.3060 ca         1 63N       0.733500
     18 N19         -0.6460     0.0050     1.1610 nb         1 63N      -0.616000
     19 C20         -0.7280     0.0010     3.5840 cc         1 63N      -0.374800
     20 C21         -2.1300    -0.0050     3.7250 cc         1 63N       0.444200
     21 N22         -2.4080    -0.0030     5.0020 nd         1 63N      -0.566800
     22 N23         -1.2050     0.0040     5.7190 na         1 63N       0.264900
     23 C24         -0.1870     0.0010     4.8380 cd         1 63N      -0.104300
     24 S25         -1.0600     0.0100     7.3680 s6         1 63N       0.999000
     25 O26          0.2000     0.6220     7.6080 o          1 63N      -0.558300
     26 O27         -2.2640     0.6100     7.8240 o          1 63N      -0.558300
     27 C28         -1.0120    -1.7460     7.8250 cx         1 63N      -0.130900
     28 C29         -0.9970    -2.0870     9.3160 cx         1 63N      -0.008900
     29 C30         -2.2580    -2.3380     8.4860 cx         1 63N      -0.008900
     30 H1          -7.3060    -0.6180    -3.1300 h5         1 63N       0.030800
     31 H2          -2.2400    -0.2210    -3.3290 ha         1 63N       0.113000
     32 H3          -4.5380    -0.2170     1.0130 h4         1 63N      -0.012900
     33 H4          -6.5810    -1.8170    -5.2620 hc         1 63N       0.016533
     34 H5          -5.1220    -2.6490    -4.7080 hc         1 63N       0.016533
     35 H6          -5.1790    -1.9520    -6.3330 hc         1 63N       0.016533
     36 H7          -5.4610     1.5800    -4.8970 hc         1 63N       0.016533
     37 H8          -6.7520     0.4400    -5.3000 hc         1 63N       0.016533
     38 H9          -5.4690     0.7740    -6.4710 hc         1 63N       0.016533
     39 H10         -3.8960    -0.4300    -4.9900 h1         1 63N       0.045700
     40 H11         -0.2140     0.0860    -2.0640 hn         1 63N       0.287800
     41 H12          1.9500    -0.0010    -0.9310 ha         1 63N       0.122000
     42 H13          3.1390     0.0000     1.2500 h4         1 63N      -0.019900
     43 H14         -2.8510    -0.0110     2.9170 h4         1 63N       0.026100
     44 H15          0.8690     0.0050     5.0790 h4         1 63N       0.171000
     45 H16         -0.4610    -2.4350     7.1960 h1         1 63N       0.098700
     46 H17         -1.0430    -1.2410     9.9900 hc         1 63N       0.055450
     47 H18         -0.4330    -2.9710     9.5880 hc         1 63N       0.055450
     48 H19         -3.0730    -1.6450     8.6520 hc         1 63N       0.055450
     49 H20         -2.4640    -3.3760     8.2500 hc         1 63N       0.055450
     50 C2          -4.9530    -0.5040    -4.7640 c3         1 63N      -0.060000
@<TRIPOS>BOND
     1     1    13 1   
     2     1    14 ar  
     3     1    18 ar  
     4     2    10 1   
     5     2    11 2   
     6     2    30 1   
     7     3     4 ar  
     8     3     7 ar  
     9     3    11 1   
    10     4     5 ar  
    11     4    10 1   
    12     5     6 ar  
    13     5    31 1   
    14     6    12 ar  
    15     6    13 1   
    16     7    12 ar  
    17     7    32 1   
    18     8    33 1   
    19     8    34 1   
    20     8    35 1   
    21     8    50 1   
    22     9    36 1   
    23     9    37 1   
    24     9    38 1   
    25     9    50 1   
    26    10    50 1   
    27    13    40 1   
    28    14    15 ar  
    29    14    41 1   
    30    15    16 ar  
    31    15    42 1   
    32    16    17 ar  
    33    17    18 ar  
    34    17    19 1   
    35    19    20 1   
    36    19    23 2   
    37    20    21 2   
    38    20    43 1   
    39    21    22 1   
    40    22    23 1   
    41    22    24 1   
    42    23    44 1   
    43    24    25 2   
    44    24    26 2   
    45    24    27 1   
    46    27    28 1   
    47    27    29 1   
    48    27    45 1   
    49    28    29 1   
    50    28    46 1   
    51    28    47 1   
    52    29    48 1   
    53    29    49 1   
    54    39    50 1   
@<TRIPOS>SUBSTRUCTURE
     1 63N         1 TEMP              0 ****  ****    0 ROOT
