@<TRIPOS>MOLECULE
molecule
   50    54     1     0     0
SMALL
bcc


@<TRIPOS>ATOM
      1 C14          0.0000     0.0000     0.0000 ca         1 63N       0.720200
      2 C5          -6.3380    -0.5200    -2.6540 cc         1 63N       0.424700
      3 C7          -4.8160    -0.3330    -1.1140 ca         1 63N      -0.066900
      4 C8          -4.1600    -0.3320    -2.3620 ca         1 63N      -0.037200
      5 C9          -2.7760    -0.2220    -2.3880 ca         1 63N      -0.313300
      6 C10         -2.0930    -0.1120    -1.1870 ca         1 63N       0.684200
      7 C12         -4.0510    -0.2220     0.0460 ca         1 63N       0.512200
      8 C3          -5.4980    -1.8270    -5.3050 c3         1 63N      -0.109100
      9 C1          -5.6980     0.6610    -5.4180 c3         1 63N      -0.109100
     10 N4          -5.1470    -0.4540    -3.3120 na         1 63N      -0.154300
     11 N6          -6.1440    -0.4470    -1.3690 nd         1 63N      -0.584100
     12 N11         -2.7410    -0.1120    -0.0280 nb         1 63N      -0.689000
     13 N13         -0.7040    -0.0000    -1.1950 nu         1 63N      -0.862600
     14 C15          1.3960     0.0000     0.0000 ca         1 63N      -0.448600
     15 C16          2.0560     0.0000     1.2150 ca         1 63N       0.490200
     16 N17          1.3500     0.0010     2.3350 nb         1 63N      -0.778000
     17 C18          0.0240     0.0010     2.3060 ca         1 63N       0.802500
     18 N19         -0.6460     0.0050     1.1610 nb         1 63N      -0.728000
     19 C20         -0.7280     0.0010     3.5840 cc         1 63N      -0.330800
     20 C21         -2.1300    -0.0050     3.7250 cc         1 63N       0.399200
     21 N22         -2.4080    -0.0030     5.0020 nd         1 63N      -0.481800
     22 N23         -1.2050     0.0040     5.7190 na         1 63N      -0.084100
     23 C24         -0.1870     0.0010     4.8380 cd         1 63N      -0.040300
     24 S25         -1.0600     0.0100     7.3680 s6         1 63N       1.358000
     25 O26          0.2000     0.6220     7.6080 o          1 63N      -0.595300
     26 O27         -2.2640     0.6100     7.8240 o          1 63N      -0.595300
     27 C28         -1.0120    -1.7460     7.8250 cx         1 63N      -0.303900
     28 C29         -0.9970    -2.0870     9.3160 cx         1 63N      -0.074400
     29 C30         -2.2580    -2.3380     8.4860 cx         1 63N      -0.074400
     30 H1          -7.3060    -0.6180    -3.1300 h5         1 63N       0.075800
     31 H2          -2.2400    -0.2210    -3.3290 ha         1 63N       0.129000
     32 H3          -4.5380    -0.2170     1.0130 h4         1 63N       0.038100
     33 H4          -6.5810    -1.8170    -5.2620 hc         1 63N       0.049200
     34 H5          -5.1220    -2.6490    -4.7080 hc         1 63N       0.049200
     35 H6          -5.1790    -1.9520    -6.3330 hc         1 63N       0.049200
     36 H7          -5.4610     1.5800    -4.8970 hc         1 63N       0.049200
     37 H8          -6.7520     0.4400    -5.3000 hc         1 63N       0.049200
     38 H9          -5.4690     0.7740    -6.4710 hc         1 63N       0.049200
     39 H10         -3.8960    -0.4300    -4.9900 h1         1 63N       0.071700
     40 H11         -0.2140     0.0860    -2.0640 hn         1 63N       0.464800
     41 H12          1.9500    -0.0010    -0.9310 ha         1 63N       0.139000
     42 H13          3.1390     0.0000     1.2500 h4         1 63N       0.029100
     43 H14         -2.8510    -0.0110     2.9170 h4         1 63N       0.077100
     44 H15          0.8690     0.0050     5.0790 h4         1 63N       0.209000
     45 H16         -0.4610    -2.4350     7.1960 h1         1 63N       0.129700
     46 H17         -1.0430    -1.2410     9.9900 hc         1 63N       0.090950
     47 H18         -0.4330    -2.9710     9.5880 hc         1 63N       0.090950
     48 H19         -3.0730    -1.6450     8.6520 hc         1 63N       0.090950
     49 H20         -2.4640    -3.3760     8.2500 hc         1 63N       0.090950
     50 C2          -4.9530    -0.5040    -4.7640 c3         1 63N       0.052000
@<TRIPOS>BOND
     1    20    21 2   
     2    20    19 1   
     3    21    22 1   
     4    25    24 2   
     5    16    15 ar  
     6    16    17 ar  
     7    19    17 1   
     8    19    23 2   
     9    22    24 1   
    10    22    23 1   
    11    15    14 ar  
    12    17    18 ar  
    13    24    27 1   
    14    24    26 2   
    15    14     1 ar  
    16    27    28 1   
    17    27    29 1   
    18    28    29 1   
    19    18     1 ar  
    20     1    13 1   
    21    13     6 1   
    22     5     6 ar  
    23     5     4 ar  
    24     6    12 ar  
    25    50     8 1   
    26    50     9 1   
    27    50    10 1   
    28    12     7 ar  
    29     4    10 1   
    30     4     3 ar  
    31    10     2 1   
    32     7     3 ar  
    33     3    11 1   
    34     2    11 2   
    35     2    30 1   
    36     5    31 1   
    37     7    32 1   
    38     8    33 1   
    39     8    34 1   
    40     8    35 1   
    41     9    36 1   
    42     9    37 1   
    43     9    38 1   
    44    50    39 1   
    45    13    40 1   
    46    14    41 1   
    47    15    42 1   
    48    20    43 1   
    49    23    44 1   
    50    27    45 1   
    51    28    46 1   
    52    28    47 1   
    53    29    48 1   
    54    29    49 1   
@<TRIPOS>SUBSTRUCTURE
     1 63N         1 TEMP              0 ****  ****    0 ROOT
