@<TRIPOS>MOLECULE
molecule
   85    88     1     0     0
SMALL
bcc


@<TRIPOS>ATOM
      1 C33          0.0000     0.0000     0.0000 c3         1 63O       0.100300
      2 C32          2.1980     0.0010    -1.2680 c3         1 63O       0.100300
      3 N3          -3.1450   -11.5960     7.9680 ns         1 63O      -0.564900
      4 C4          -4.5850   -11.2520    12.0210 cc         1 63O       0.295200
      5 N2          -5.0450   -10.0380    11.8490 nd         1 63O      -0.514800
      6 C7          -4.0200   -11.2570     5.7100 c3         1 63O      -0.048100
      7 C6          -2.7770   -11.5480     6.5520 c3         1 63O       0.062700
      8 C9          -6.0710   -12.3080     6.6870 ca         1 63O      -0.091000
      9 C13         -4.7990   -13.5540     5.0860 ca         1 63O       0.123900
     10 C20          0.1370    -9.0070     3.6770 ca         1 63O      -0.140000
     11 C21          2.5670    -6.1690     4.2090 c3         1 63O      -0.051100
     12 C8          -4.9900   -12.4040     5.8310 ca         1 63O      -0.122300
     13 N5           2.6960    -3.7400     3.9500 ns         1 63O      -0.591900
     14 C18          1.6290    -7.3150     4.4810 ca         1 63O      -0.101300
     15 C16          0.5350    -8.7730     6.0350 ca         1 63O      -0.140000
     16 C19          0.9970    -7.9550     3.4300 ca         1 63O      -0.106500
     17 C26          1.6310     0.1480     4.9710 c3         1 63O      -0.066900
     18 N1          -4.8070    -9.6220    10.6580 na         1 63O       0.181400
     19 O1          -3.8070    -9.4760     7.9380 o          1 63O      -0.588100
     20 C2          -4.1460   -10.5900     9.9570 cd         1 63O      -0.199900
     21 C3          -3.9920   -11.6580    10.8240 cc         1 63O      -0.288300
     22 O3           1.0440    -2.2650     4.0880 o          1 63O      -0.623100
     23 O4           3.3510     0.0000     1.1680 o          1 63O      -0.625100
     24 C5          -3.6910   -10.5140     8.5590 c          1 63O       0.709700
     25 N6           1.4640     0.0000     0.0000 n          1 63O      -0.499800
     26 C10         -6.9610   -13.3600     6.8000 ca         1 63O      -0.139000
     27 C11         -6.7710   -14.5100     6.0550 ca         1 63O      -0.104000
     28 C12         -5.6910   -14.6070     5.1970 ca         1 63O      -0.163000
     29 C14         -1.7560   -10.4610     6.3340 c          1 63O       0.640100
     30 C15         -0.1000    -9.4180     4.9810 ca         1 63O       0.056600
     31 C17          1.3990    -7.7250     5.7820 ca         1 63O      -0.106500
     32 C22          1.7830    -4.8550     4.2150 c3         1 63O       0.114000
     33 C24          3.1640    -1.3320     3.6350 c3         1 63O      -0.154400
     34 C25          2.3790    -0.0180     3.6360 c3         1 63O      -0.026000
     35 C27          2.1720     1.4370     5.6210 c3         1 63O      -0.090400
     36 C28          3.5730     1.6250     4.9880 c3         1 63O      -0.090400
     37 C29          3.3470     1.1770     3.5210 c3         1 63O      -0.066900
     38 C30          1.3850    -0.0020     2.4730 c3         1 63O      -0.153400
     39 C31          2.1380     0.0000     1.1680 c          1 63O       0.660100
     40 H1          -0.3610     0.0320    -1.0210 h1         1 63O       0.039867
     41 H2          -0.3610     0.8680     0.5380 h1         1 63O       0.039867
     42 H3          -0.3610    -0.9000     0.4830 h1         1 63O       0.039867
     43 H4           2.8180     0.8880    -1.3260 h1         1 63O       0.039867
     44 H5           2.8230    -0.8810    -1.3250 h1         1 63O       0.039867
     45 H6           1.4940    -0.0010    -2.0920 h1         1 63O       0.039867
     46 H7          -2.9450   -12.4140     8.5090 hn         1 63O       0.325500
     47 H9          -3.7340   -11.1340     4.6730 hc         1 63O       0.082200
     48 H10         -4.4910   -10.3470     6.0640 hc         1 63O       0.082200
     49 H11         -2.3570   -12.5020     6.2560 h1         1 63O       0.072700
     50 H12         -6.2200   -11.4080     7.2710 ha         1 63O       0.145000
     51 H13         -0.3570    -9.5070     2.8530 ha         1 63O       0.148000
     52 H14          3.0350    -6.3070     3.2420 hc         1 63O       0.050200
     53 H15          3.3300    -6.1370     4.9780 hc         1 63O       0.050200
     54 H16          3.6740    -3.9120     3.8270 hn         1 63O       0.312500
     55 H17          0.3540    -9.0920     7.0540 ha         1 63O       0.148000
     56 H18          1.1820    -7.6350     2.4120 ha         1 63O       0.134000
     57 H19          1.8290    -0.7010     5.6130 hc         1 63O       0.054950
     58 H20          0.5670     0.2440     4.7890 hc         1 63O       0.054950
     59 H21         -5.8450    -8.4370     9.2810 h1         1 63O       0.069367
     60 H22         -4.2970    -7.7730     9.8220 h1         1 63O       0.069367
     61 H23         -5.6980    -7.7450    10.9020 h1         1 63O       0.069367
     62 H24         -3.5130   -12.6080    10.6180 ha         1 63O       0.154000
     63 H26         -7.8070   -13.2840     7.4710 ha         1 63O       0.138000
     64 H27         -7.4690   -15.3340     6.1430 ha         1 63O       0.138000
     65 H28         -5.5420   -15.5080     4.6140 ha         1 63O       0.145000
     66 H29          1.8950    -7.2220     6.6030 ha         1 63O       0.134000
     67 H30          1.3160    -4.7180     5.1820 h1         1 63O       0.057700
     68 H31          1.0200    -4.8870     3.4460 h1         1 63O       0.057700
     69 H32          3.9250    -1.2980     4.4050 hc         1 63O       0.077200
     70 H33          3.6340    -1.4710     2.6690 hc         1 63O       0.077200
     71 H34          1.5330     2.2790     5.3800 hc         1 63O       0.041200
     72 H35          2.2560     1.3120     6.6940 hc         1 63O       0.041200
     73 H36          4.3010     0.9870     5.4740 hc         1 63O       0.041200
     74 H37          3.8750     2.6650     5.0280 hc         1 63O       0.041200
     75 H38          2.8950     1.9760     2.9470 hc         1 63O       0.054950
     76 H39          4.2830     0.8630     3.0740 hc         1 63O       0.054950
     77 H40          0.7690     0.8870     2.5360 hc         1 63O       0.078200
     78 H41          0.7540    -0.8810     2.5250 hc         1 63O       0.078200
     79 C23          2.2240    -2.4780     3.9080 c          1 63O       0.656100
     80 N4          -0.9760   -10.4780     5.2340 ns         1 63O      -0.482100
     81 F1          -3.7420   -13.6490     4.2480 f          1 63O      -0.148900
     82 O2          -1.6370    -9.5700     7.1480 o          1 63O      -0.551100
     83 H8          -4.6530   -11.8370    12.9300 h4         1 63O       0.049100
     84 C1          -5.1860    -8.3090    10.1310 c3         1 63O       0.053600
     85 H25         -0.9960   -11.2680     4.6200 hn         1 63O       0.323500
@<TRIPOS>BOND
     1    36    37 1   
     2    36    35 1   
     3    37    34 1   
     4    23    39 2   
     5    35    17 1   
     6    34    33 1   
     7    34    38 1   
     8    34    17 1   
     9    39    38 1   
    10    39    25 1   
    11    33    79 1   
    12     2    25 1   
    13    25     1 1   
    14    79    13 1   
    15    79    22 2   
    16     4    21 1   
    17     4     5 2   
    18    82    29 2   
    19    21    20 2   
    20    13    32 1   
    21     5    18 1   
    22    20    18 1   
    23    20    24 1   
    24    18    84 1   
    25     3    24 1   
    26     3     7 1   
    27    29     7 1   
    28    29    80 1   
    29     6     7 1   
    30     6    12 1   
    31    31    15 ar  
    32    31    14 ar  
    33    15    30 ar  
    34    24    19 2   
    35    32    11 1   
    36     8    12 ar  
    37     8    26 ar  
    38    11    14 1   
    39    14    16 ar  
    40    12     9 ar  
    41    30    80 1   
    42    30    10 ar  
    43    26    27 ar  
    44    16    10 ar  
    45     9    81 1   
    46     9    28 ar  
    47    27    28 ar  
    48     1    40 1   
    49     1    41 1   
    50     1    42 1   
    51     2    43 1   
    52     2    44 1   
    53     2    45 1   
    54     3    46 1   
    55     4    83 1   
    56     6    47 1   
    57     6    48 1   
    58     7    49 1   
    59     8    50 1   
    60    10    51 1   
    61    11    52 1   
    62    11    53 1   
    63    13    54 1   
    64    15    55 1   
    65    16    56 1   
    66    17    57 1   
    67    17    58 1   
    68    84    59 1   
    69    84    60 1   
    70    84    61 1   
    71    21    62 1   
    72    80    85 1   
    73    26    63 1   
    74    27    64 1   
    75    28    65 1   
    76    31    66 1   
    77    32    67 1   
    78    32    68 1   
    79    33    69 1   
    80    33    70 1   
    81    35    71 1   
    82    35    72 1   
    83    36    73 1   
    84    36    74 1   
    85    37    75 1   
    86    37    76 1   
    87    38    77 1   
    88    38    78 1   
@<TRIPOS>SUBSTRUCTURE
     1 63O         1 TEMP              0 ****  ****    0 ROOT
