@<TRIPOS>MOLECULE
molecule
   20    20     1     0     0
SMALL
bcc


@<TRIPOS>ATOM
      1 O5'          0.0000     0.0000     0.0000 os         1 63T      -0.559200
      2 C5'          1.4280     0.0000     0.0000 c3         1 63T       0.216400
      3 C4'          1.9390     0.0000     1.4430 c3         1 63T       0.131100
      4 O4'          1.6030    -1.2590     2.0890 os         1 63T      -0.355900
      5 C3'          3.4770     0.1080     1.4600 c3         1 63T       0.103100
      6 O3'          3.8910     1.4070     1.8900 oh         1 63T      -0.598800
      7 C2'          3.8720    -0.9720     2.4940 c3         1 63T      -0.246400
      8 C1'          2.7020    -1.9380     2.4430 c          1 63T       0.741600
      9 O1'          2.7550    -3.1210     2.6810 o          1 63T      -0.613500
     10 P           -0.8770     0.0000    -1.3500 p5         1 63T       1.170900
     11 O1P         -0.4750    -1.1420    -2.2010 o          1 63T      -0.904167
     12 O2P         -2.4380    -0.1310    -0.9770 o          1 63T      -0.904167
     13 O1          -0.6310     1.3770    -2.1490 o          1 63T      -0.904167
     14 H5'1         1.7890     0.8850    -0.5110 h1         1 63T       0.024700
     15 H5'2         1.7890    -0.8840    -0.5110 h1         1 63T       0.024700
     16 H4'          1.5050     0.8250     1.9950 h1         1 63T       0.093700
     17 H3'          3.8870    -0.1290     0.4850 h1         1 63T       0.057700
     18 H1           4.6660     1.6630     1.4180 ho         1 63T       0.391000
     19 H2'2         4.7890    -1.4670     2.1970 hc         1 63T       0.064700
     20 H2'1         3.9650    -0.5380     3.4820 hc         1 63T       0.064700
@<TRIPOS>BOND
     1     9     8 2   
     2     7     8 1   
     3     7     5 1   
     4     8     4 1   
     5     6     5 1   
     6     5     3 1   
     7     4     3 1   
     8     3     2 1   
     9     1     2 1   
    10     1    10 1   
    11    11    10 1   
    12    10    12 1   
    13    10    13 1   
    14     2    14 1   
    15     2    15 1   
    16     3    16 1   
    17     5    17 1   
    18     6    18 1   
    19     7    19 1   
    20     7    20 1   
@<TRIPOS>SUBSTRUCTURE
     1 63T         1 TEMP              0 ****  ****    0 ROOT
