@<TRIPOS>MOLECULE
63U
   43    44     1     0     0
SMALL
bcc


@<TRIPOS>ATOM
      1 OAI          0.0000     0.0000     0.0000 o          1 63U      -0.865800
      2 CAH          1.2150     0.0000     0.0000 c          1 63U       0.968800
      3 OAJ          1.8900     0.0000     1.1660 o          1 63U      -0.865800
      4 CAD          1.9520    -0.0060    -1.2770 ce         1 63U      -0.027200
      5 NAC          2.2510     1.2340    -1.8240 nu         1 63U      -0.426000
      6 CAE          2.2560    -1.1860    -1.7700 c2         1 63U      -0.272400
      7 CAG          1.8050    -2.3930    -0.9900 c3         1 63U       0.069100
      8 CAF          3.0160    -1.4340    -3.0410 c3         1 63U       0.214900
      9 SAA          2.9090     0.0360    -4.1050 ss         1 63U      -0.458200
     10 CB           3.2430     1.3660    -2.9010 c3         1 63U       0.244600
     11 CA           3.0990     2.7320    -3.5770 c3         1 63U      -0.121300
     12 C            1.6800     2.9100    -4.0500 c          1 63U       0.671900
     13 O            1.0140     3.8270    -3.6300 o          1 63U      -0.574100
     14 N            3.4320     3.7880    -2.6190 ns         1 63U      -0.068900
     15 CAO          3.8670     4.9860    -3.0610 c          1 63U       0.554100
     16 OAR          3.9820     5.1870    -4.2510 o          1 63U      -0.666100
     17 CAP          4.2090     6.0730    -2.0750 c3         1 63U      -0.068200
     18 NAS          4.1880     7.3750    -2.7560 nz         1 63U       0.076400
     19 CAQ          5.5840     5.8240    -1.5110 ca         1 63U      -0.188300
     20 CAT          6.7050     6.1730    -2.2410 ca         1 63U      -0.079500
     21 CAU          7.9660     5.9500    -1.7200 ca         1 63U      -0.070000
     22 CAV          8.1060     5.3680    -0.4740 ca         1 63U      -0.053000
     23 CAW          6.9850     5.0140     0.2530 ca         1 63U      -0.070000
     24 CAX          5.7250     5.2420    -0.2650 ca         1 63U      -0.079500
     25 H3           1.7840     2.0500    -1.4810 hn         1 63U       0.295800
     26 H6           2.1360    -3.2930    -1.4940 hc         1 63U       0.013367
     27 H7           2.2310    -2.3600     0.0060 hc         1 63U       0.013367
     28 H8           0.7240    -2.3950    -0.9210 hc         1 63U       0.013367
     29 H9           2.5860    -2.2840    -3.5570 h1         1 63U       0.043200
     30 H10          4.0540    -1.6340    -2.8060 h1         1 63U       0.043200
     31 H11          4.2410     1.2530    -2.4970 h2         1 63U       0.047700
     32 H12          3.7720     2.7880    -4.4250 h1         1 63U       0.090700
     33 H13          1.2540     2.2130    -4.7610 h4         1 63U       0.018200
     34 H14          3.3350     3.6220    -1.6370 hn         1 63U       0.195500
     35 H15          3.4830     6.0740    -1.2710 hx         1 63U       0.097700
     36 H16          3.2440     7.7010    -2.8230 hn         1 63U       0.230133
     37 H17          4.5730     7.2770    -3.6750 hn         1 63U       0.230133
     38 H19          6.5950     6.6300    -3.2170 ha         1 63U       0.110500
     39 H20          8.8440     6.2250    -2.2910 ha         1 63U       0.125000
     40 H21          9.0950     5.1910    -0.0670 ha         1 63U       0.121000
     41 H22          7.0950     4.5580     1.2300 ha         1 63U       0.125000
     42 H23          4.8460     4.9650     0.3050 ha         1 63U       0.110500
     43 HAS3         4.6720     8.0510    -2.1990 hn         1 63U       0.230133
@<TRIPOS>BOND
     1     1     2 1   
     2     2     3 1   
     3     2     4 1   
     4     4     5 1   
     5     4     6 2   
     6     5    10 1   
     7     5    25 1   
     8     6     7 1   
     9     6     8 1   
    10     7    26 1   
    11     7    27 1   
    12     7    28 1   
    13     8     9 1   
    14     8    29 1   
    15     8    30 1   
    16     9    10 1   
    17    10    11 1   
    18    10    31 1   
    19    11    12 1   
    20    11    14 1   
    21    11    32 1   
    22    12    13 2   
    23    12    33 1   
    24    14    15 1   
    25    14    34 1   
    26    15    16 2   
    27    15    17 1   
    28    17    18 1   
    29    17    19 1   
    30    17    35 1   
    31    18    36 1   
    32    18    37 1   
    33    18    43 1   
    34    19    20 ar  
    35    19    24 ar  
    36    20    21 ar  
    37    20    38 1   
    38    21    22 ar  
    39    21    39 1   
    40    22    23 ar  
    41    22    40 1   
    42    23    24 ar  
    43    23    41 1   
    44    24    42 1   
@<TRIPOS>SUBSTRUCTURE
     1 63U         1 TEMP              0 ****  ****    0 ROOT
