@<TRIPOS>MOLECULE
molecule
   35    36     1     0     0
SMALL
bcc


@<TRIPOS>ATOM
      1 OAU          0.0000     0.0000     0.0000 o          1 63V      -0.804800
      2 CAK          1.2130     0.0000     0.0000 c          1 63V       0.801300
      3 OAV          1.8860     0.0000     1.1670 o          1 63V      -0.804800
      4 CAD          1.9580    -0.0060    -1.2880 ce         1 63V       0.482600
      5 NAC          3.2230    -0.1400    -1.2200 n2         1 63V      -0.613900
      6 CAE          1.1620     0.1370    -2.5140 ce         1 63V      -0.276800
      7 CAJ         -0.1130     0.5090    -2.4470 c2         1 63V      -0.151000
      8 CAF          1.8090    -0.1460    -3.8540 c3         1 63V       0.086900
      9 SAA          3.4730     0.5980    -3.8000 ss         1 63V      -0.459200
     10 CB           4.1720    -0.1990    -2.3210 c3         1 63V       0.245600
     11 CA           5.4610     0.5180    -1.9190 c3         1 63V       0.032700
     12 C            5.1380     1.9220    -1.4780 c          1 63V       0.575900
     13 O            5.4110     2.2820    -0.3580 o          1 63V      -0.504100
     14 N            6.0990    -0.2050    -0.8160 ns         1 63V      -0.548900
     15 CAM          7.4280    -0.0990    -0.6200 c          1 63V       0.661100
     16 OAO          8.0960     0.5960    -1.3560 o          1 63V      -0.623100
     17 CAN          8.0840    -0.8440     0.5150 c3         1 63V      -0.080100
     18 CAP          9.5640    -0.5580     0.5140 cd         1 63V       0.014600
     19 SAT         10.7770    -1.4910    -0.3520 ss         1 63V      -0.174800
     20 CAS         12.0540    -0.4390     0.2440 cd         1 63V      -0.085100
     21 CAR         11.5280     0.5090     1.0210 cc         1 63V      -0.150000
     22 CAQ         10.1530     0.4460     1.1660 cc         1 63V      -0.150000
     23 H6          -0.5690     0.7090    -1.4860 ha         1 63V       0.141000
     24 H7          -0.6950     0.6130    -3.3550 ha         1 63V       0.141000
     25 H9           1.2280     0.3080    -4.6480 h1         1 63V       0.063700
     26 H10          1.8870    -1.2150    -4.0090 h1         1 63V       0.063700
     27 H11          4.3900    -1.2360    -2.5460 h2         1 63V       0.073700
     28 H12          6.1350     0.5520    -2.7660 h1         1 63V       0.089700
     29 H13          4.6910     2.6200    -2.1760 h4         1 63V       0.008200
     30 H14          5.5520    -0.7970    -0.2230 hn         1 63V       0.345500
     31 H15          7.6540    -0.5210     1.4550 hc         1 63V       0.074700
     32 H16          7.9210    -1.9080     0.3900 hc         1 63V       0.074700
     33 H17         13.1080    -0.5460     0.0150 h4         1 63V       0.159000
     34 H18         12.1310     1.2730     1.4980 ha         1 63V       0.139000
     35 H19          9.5980     1.1550     1.7690 ha         1 63V       0.154000
@<TRIPOS>BOND
     1    21    22 1   
     2    21    20 2   
     3    22    18 2   
     4    20    19 1   
     5    18    17 1   
     6    18    19 1   
     7    17    15 1   
     8    13    12 2   
     9    14    15 1   
    10    14    11 1   
    11    15    16 2   
    12     1     2 1   
    13    12    11 1   
    14     6     8 1   
    15     6     7 2   
    16     6     4 1   
    17     8     9 1   
    18    11    10 1   
    19     2     4 1   
    20     2     3 1   
    21    10     5 1   
    22    10     9 1   
    23     4     5 2   
    24     7    23 1   
    25     7    24 1   
    26     8    25 1   
    27     8    26 1   
    28    10    27 1   
    29    11    28 1   
    30    12    29 1   
    31    14    30 1   
    32    17    31 1   
    33    17    32 1   
    34    20    33 1   
    35    21    34 1   
    36    22    35 1   
@<TRIPOS>SUBSTRUCTURE
     1 63V         1 TEMP              0 ****  ****    0 ROOT
