@<TRIPOS>MOLECULE
63V
   35    36     1     0     0
SMALL
bcc


@<TRIPOS>ATOM
      1 OAU          0.0000     0.0000     0.0000 o          1 63V      -0.854800
      2 CAK          1.2130     0.0000     0.0000 c          1 63V       0.883300
      3 OAV          1.8860     0.0000     1.1670 o          1 63V      -0.854800
      4 CAD          1.9580    -0.0060    -1.2880 ce         1 63V       0.446600
      5 NAC          3.2230    -0.1400    -1.2200 n2         1 63V      -0.527900
      6 CAE          1.1620     0.1370    -2.5140 ce         1 63V      -0.278800
      7 CAJ         -0.1130     0.5090    -2.4470 c2         1 63V      -0.118000
      8 CAF          1.8090    -0.1460    -3.8540 c3         1 63V       0.162900
      9 SAA          3.4730     0.5980    -3.8000 ss         1 63V      -0.481200
     10 CB           4.1720    -0.1990    -2.3210 c3         1 63V       0.250600
     11 CA           5.4610     0.5180    -1.9190 c3         1 63V      -0.081300
     12 C            5.1380     1.9220    -1.4780 c          1 63V       0.653900
     13 O            5.4110     2.2820    -0.3580 o          1 63V      -0.540100
     14 N            6.0990    -0.2050    -0.8160 ns         1 63V      -0.141900
     15 CAM          7.4280    -0.0990    -0.6200 c          1 63V       0.568100
     16 OAO          8.0960     0.5960    -1.3560 o          1 63V      -0.668100
     17 CAN          8.0840    -0.8440     0.5150 c3         1 63V      -0.004100
     18 CAP          9.5640    -0.5580     0.5140 cc         1 63V       0.066600
     19 SAT         10.7770    -1.4910    -0.3520 ss         1 63V      -0.290800
     20 CAS         12.0540    -0.4390     0.2440 cc         1 63V      -0.015100
     21 CAR         11.5280     0.5090     1.0210 cd         1 63V      -0.117000
     22 CAQ         10.1530     0.4460     1.1660 cd         1 63V      -0.128000
     23 H6          -0.5690     0.7090    -1.4860 ha         1 63V       0.120500
     24 H7          -0.6950     0.6130    -3.3550 ha         1 63V       0.120500
     25 H9           1.2280     0.3080    -4.6480 h1         1 63V       0.039200
     26 H10          1.8870    -1.2150    -4.0090 h1         1 63V       0.039200
     27 H11          4.3900    -1.2360    -2.5460 h2         1 63V       0.047700
     28 H12          6.1350     0.5520    -2.7660 h1         1 63V       0.069700
     29 H13          4.6910     2.6200    -2.1760 h4         1 63V      -0.022800
     30 H14          5.5520    -0.7970    -0.2230 hn         1 63V       0.202500
     31 H15          7.9210    -1.9080     0.3900 hc         1 63V       0.038200
     32 H16          7.6540    -0.5210     1.4550 hc         1 63V       0.038200
     33 H17         13.1080    -0.5460     0.0150 h4         1 63V       0.139000
     34 H18         12.1310     1.2730     1.4980 ha         1 63V       0.111000
     35 H19          9.5980     1.1550     1.7690 ha         1 63V       0.127000
@<TRIPOS>BOND
     1     1     2 1   
     2     2     3 1   
     3     2     4 1   
     4     4     5 2   
     5     4     6 1   
     6     5    10 1   
     7     6     7 2   
     8     6     8 1   
     9     7    23 1   
    10     7    24 1   
    11     8     9 1   
    12     8    25 1   
    13     8    26 1   
    14     9    10 1   
    15    10    11 1   
    16    10    27 1   
    17    11    12 1   
    18    11    14 1   
    19    11    28 1   
    20    12    13 2   
    21    12    29 1   
    22    14    15 1   
    23    14    30 1   
    24    15    16 2   
    25    15    17 1   
    26    17    18 1   
    27    17    31 1   
    28    17    32 1   
    29    18    19 1   
    30    18    22 2   
    31    19    20 1   
    32    20    21 2   
    33    20    33 1   
    34    21    22 1   
    35    21    34 1   
    36    22    35 1   
@<TRIPOS>SUBSTRUCTURE
     1 63V         1 TEMP              0 ****  ****    0 ROOT
