@<TRIPOS>MOLECULE
63W
   34    36     1     0     0
SMALL
bcc


@<TRIPOS>ATOM
      1 C4           0.0000     0.0000     0.0000 ca         1 63W       0.587600
      2 C5           1.3970     0.0000     0.0000 ca         1 63W      -0.395400
      3 C6           2.0560     0.0000     1.2550 ca         1 63W       0.621200
      4 N1           1.3310    -0.0010     2.3630 nb         1 63W      -0.715000
      5 N3          -0.6520     0.0050     1.1700 nb         1 63W      -0.672000
      6 CAR          1.9410     0.0000    -1.3460 cc         1 63W       0.003600
      7 NAC          3.4390    -0.0010     1.3220 nv         1 63W      -0.622500
      8 C2           0.0050    -0.0010     2.3150 ca         1 63W       0.731900
      9 NAB         -0.7120     0.0040     3.5010 nv         1 63W      -0.501500
     10 SAN         -0.5940     0.0000    -1.6540 ss         1 63W      -0.289900
     11 CAT          1.0300     0.0000    -2.3110 cd         1 63W       0.102200
     12 SAM          1.4060     0.0010    -4.0340 ss         1 63W      -0.258500
     13 CAP         -0.1800     0.1550    -4.7850 ca         1 63W       0.032900
     14 CAG         -0.7440     1.4120    -4.9710 ca         1 63W      -0.040000
     15 CAI         -1.9860     1.5290    -5.5610 ca         1 63W      -0.060500
     16 CAS         -2.6720     0.3980    -5.9650 ca         1 63W      -0.176300
     17 CAW         -4.0290     0.5290    -6.6070 c3         1 63W       0.637200
     18 FAE         -4.6730     1.6660    -6.1080 f          1 63W      -0.206300
     19 FAF         -3.8790     0.6490    -7.9930 f          1 63W      -0.206300
     20 FAD         -4.7950    -0.6050    -6.3170 f          1 63W      -0.206300
     21 CAJ         -2.1150    -0.8550    -5.7810 ca         1 63W      -0.060500
     22 CAH         -0.8690    -0.9790    -5.1980 ca         1 63W      -0.040000
     23 H1           3.5880    -0.0060    -2.6960 hc         1 63W       0.018700
     24 H2           3.8730    -0.8810    -1.1850 hc         1 63W       0.018700
     25 H3           3.8710     0.8880    -1.1950 hc         1 63W       0.018700
     26 H4           3.9210    -0.7850     1.7160 hn         1 63W       0.283800
     27 H5           3.9560     0.7950     1.0030 hn         1 63W       0.283800
     28 H6          -0.2680     0.2840     4.3530 hn         1 63W       0.276800
     29 H7          -1.6750    -0.2690     3.5050 hn         1 63W       0.276800
     30 H8          -0.2070     2.2990    -4.6550 ha         1 63W       0.126000
     31 H9          -2.4260     2.5090    -5.7060 ha         1 63W       0.123000
     32 H10         -2.6530    -1.7390    -6.1010 ha         1 63W       0.123000
     33 H11         -0.4340    -1.9610    -5.0540 ha         1 63W       0.126000
     34 CAA          3.4220     0.0000    -1.6250 c3         1 63W       0.060100
@<TRIPOS>BOND
     1     1     2 ar  
     2     1     5 ar  
     3     1    10 1   
     4     2     3 ar  
     5     2     6 1   
     6     3     4 ar  
     7     3     7 1   
     8     4     8 ar  
     9     5     8 ar  
    10     6    11 2   
    11     6    34 1   
    12     7    26 1   
    13     7    27 1   
    14     8     9 1   
    15     9    28 1   
    16     9    29 1   
    17    10    11 1   
    18    11    12 1   
    19    12    13 1   
    20    13    14 ar  
    21    13    22 ar  
    22    14    15 ar  
    23    14    30 1   
    24    15    16 ar  
    25    15    31 1   
    26    16    17 1   
    27    16    21 ar  
    28    17    18 1   
    29    17    19 1   
    30    17    20 1   
    31    21    22 ar  
    32    21    32 1   
    33    22    33 1   
    34    23    34 1   
    35    24    34 1   
    36    25    34 1   
@<TRIPOS>SUBSTRUCTURE
     1 63W         1 TEMP              0 ****  ****    0 ROOT
