@<TRIPOS>MOLECULE
molecule
   34    36     1     0     0
SMALL
bcc


@<TRIPOS>ATOM
      1 C4           0.0000     0.0000     0.0000 ca         1 63W       0.568600
      2 C5           1.3970     0.0000     0.0000 ca         1 63W      -0.388400
      3 C6           2.0560     0.0000     1.2550 ca         1 63W       0.797200
      4 N1           1.3310    -0.0010     2.3630 nb         1 63W      -0.827000
      5 N3          -0.6520     0.0050     1.1700 nb         1 63W      -0.792000
      6 CAR          1.9410     0.0000    -1.3460 cc         1 63W      -0.021400
      7 NAC          3.4390    -0.0010     1.3220 nv         1 63W      -1.063500
      8 C2           0.0050    -0.0010     2.3150 ca         1 63W       0.972900
      9 NAB         -0.7120     0.0040     3.5010 nv         1 63W      -0.993500
     10 SAN         -0.5940     0.0000    -1.6540 ss         1 63W      -0.133900
     11 CAT          1.0300     0.0000    -2.3110 cd         1 63W       0.021200
     12 SAM          1.4060     0.0010    -4.0340 ss         1 63W      -0.157500
     13 CAP         -0.1800     0.1550    -4.7850 ca         1 63W      -0.012100
     14 CAG         -0.7440     1.4120    -4.9710 ca         1 63W      -0.077500
     15 CAI         -1.9860     1.5290    -5.5610 ca         1 63W      -0.096500
     16 CAS         -2.6720     0.3980    -5.9650 ca         1 63W      -0.150300
     17 CAW         -4.0290     0.5290    -6.6070 c3         1 63W       0.671200
     18 FAE         -4.6730     1.6660    -6.1080 f          1 63W      -0.220967
     19 FAF         -3.8790     0.6490    -7.9930 f          1 63W      -0.220967
     20 FAD         -4.7950    -0.6050    -6.3170 f          1 63W      -0.220967
     21 CAJ         -2.1150    -0.8550    -5.7810 ca         1 63W      -0.096500
     22 CAH         -0.8690    -0.9790    -5.1980 ca         1 63W      -0.077500
     23 H1           3.5880    -0.0060    -2.6960 hc         1 63W       0.048367
     24 H2           3.8730    -0.8810    -1.1850 hc         1 63W       0.048367
     25 H3           3.8710     0.8880    -1.1950 hc         1 63W       0.048367
     26 H4           3.9210    -0.7850     1.7160 hn         1 63W       0.443800
     27 H5           3.9560     0.7950     1.0030 hn         1 63W       0.443800
     28 H6          -0.2680     0.2840     4.3530 hn         1 63W       0.451300
     29 H7          -1.6750    -0.2690     3.5050 hn         1 63W       0.451300
     30 H8          -0.2070     2.2990    -4.6550 ha         1 63W       0.155000
     31 H9          -2.4260     2.5090    -5.7060 ha         1 63W       0.153000
     32 H10         -2.6530    -1.7390    -6.1010 ha         1 63W       0.153000
     33 H11         -0.4340    -1.9610    -5.0540 ha         1 63W       0.155000
     34 CAA          3.4220     0.0000    -1.6250 c3         1 63W      -0.031900
@<TRIPOS>BOND
     1     9     8 1
     2     8     5 ar
     3     8     4 ar
     4     5     1 ar
     5     4     3 ar
     6     1    10 1
     7     1     2 ar
     8    10    11 1
     9     3     2 ar
    10     3     7 1
    11     2     6 1
    12    18    17 1
    13    11     6 2
    14    11    12 1
    15     6    34 1
    16    20    17 1
    17    15    14 ar
    18    15    16 ar
    19    17    16 1
    20    17    19 1
    21    14    13 ar
    22    16    21 ar
    23    13    12 1
    24    13    22 ar
    25    21    22 ar
    26    34    23 1
    27    34    24 1
    28    34    25 1
    29     7    26 1
    30     7    27 1
    31     9    28 1
    32     9    29 1
    33    14    30 1
    34    15    31 1
    35    21    32 1
    36    22    33 1
@<TRIPOS>SUBSTRUCTURE
     1 63W         1 TEMP              0 ****  ****    0 ROOT
