@<TRIPOS>MOLECULE
molecule
   31    33     1     0     0
SMALL
bcc


@<TRIPOS>ATOM
      1 C4           0.0000     0.0000     0.0000 ca         1 63Y       0.558600
      2 C5           1.3960     0.0000     0.0000 ca         1 63Y      -0.382400
      3 C6           2.0550     0.0000     1.2570 ca         1 63Y       0.777200
      4 N1           1.3290    -0.0000     2.3640 nb         1 63Y      -0.827000
      5 N3          -0.6530    -0.0040     1.1690 nb         1 63Y      -0.763000
      6 CAS         -0.8170    -1.4000    -4.8080 ca         1 63Y       0.170900
      7 CAR         -2.0620    -1.5210    -5.4000 ca         1 63Y       0.047900
      8 FAE         -2.6870    -2.7190    -5.4190 f          1 63Y      -0.109900
      9 CAN         -2.6680    -0.4130    -5.9730 ca         1 63Y       0.153900
     10 FAD         -3.8840    -0.5330    -6.5500 f          1 63Y      -0.114900
     11 CAG         -2.0310     0.8150    -5.9550 ca         1 63Y      -0.176000
     12 CAH         -0.7870     0.9410    -5.3650 ca         1 63Y      -0.036000
     13 CAQ         -0.1780    -0.1640    -4.7860 ca         1 63Y      -0.077100
     14 CAT          1.0310    -0.0020    -2.3120 cc         1 63Y       0.025200
     15 SAL         -0.5940    -0.0020    -1.6540 ss         1 63Y      -0.128900
     16 C2           0.0030    -0.0000     2.3140 ca         1 63Y       0.983900
     17 NAB         -0.7150    -0.0040     3.5010 nv         1 63Y      -1.058500
     18 NAC          3.4380    -0.0000     1.3240 nv         1 63Y      -1.005500
     19 CAP          1.9410    -0.0010    -1.3450 cd         1 63Y      -0.033400
     20 CAA          3.4230    -0.0010    -1.6240 c3         1 63Y      -0.043900
     21 H1          -2.5060     1.6780    -6.4050 ha         1 63Y       0.162000
     22 H2          -0.2900     1.9030    -5.3500 ha         1 63Y       0.162000
     23 H3          -0.9760     0.8610     3.9310 hn         1 63Y       0.446300
     24 H4          -0.9710    -0.8730     3.9270 hn         1 63Y       0.446300
     25 H5           3.8980     0.2550     2.1750 hn         1 63Y       0.446300
     26 H6           3.9770    -0.2980     0.5350 hn         1 63Y       0.446300
     27 H7           3.5900     0.0970    -2.6900 hc         1 63Y       0.051033
     28 H8           3.8560    -0.9310    -1.2750 hc         1 63Y       0.051033
     29 H9           3.8880     0.8300    -1.1080 hc         1 63Y       0.051033
     30 SAK          1.4080    -0.0040    -4.0330 ss         1 63Y      -0.125500
     31 FAF         -0.2250    -2.4770    -4.2500 f          1 63Y      -0.099900
@<TRIPOS>BOND
     1    17    16 1   
     2    16     5 ar  
     3    16     4 ar  
     4     5     1 ar  
     5     4     3 ar  
     6     1    15 1   
     7     1     2 ar  
     8    15    14 1   
     9     3     2 ar  
    10     3    18 1   
    11     2    19 1   
    12    14    19 2   
    13    14    30 1   
    14    19    20 1   
    15    30    13 1   
    16    13    12 ar  
    17    13     6 ar  
    18    12    11 ar  
    19    11     9 ar  
    20    31     6 1   
    21     6     7 ar  
    22     9     7 ar  
    23     9    10 1   
    24     7     8 1   
    25    11    21 1   
    26    12    22 1   
    27    17    23 1   
    28    17    24 1   
    29    18    25 1   
    30    18    26 1   
    31    20    27 1   
    32    20    28 1   
    33    20    29 1   
@<TRIPOS>SUBSTRUCTURE
     1 63Y         1 TEMP              0 ****  ****    0 ROOT
