@<TRIPOS>MOLECULE
63Y
   31    33     1     0     0
SMALL
bcc


@<TRIPOS>ATOM
      1 C4           0.0000     0.0000     0.0000 ca         1 63Y       0.577600
      2 C5           1.3960     0.0000     0.0000 ca         1 63Y      -0.383400
      3 C6           2.0550     0.0000     1.2570 ca         1 63Y       0.584200
      4 N1           1.3290    -0.0000     2.3640 nb         1 63Y      -0.713000
      5 N3          -0.6530    -0.0040     1.1690 nb         1 63Y      -0.638000
      6 CAS         -0.8170    -1.4000    -4.8080 ca         1 63Y       0.170900
      7 CAR         -2.0620    -1.5210    -5.4000 ca         1 63Y       0.040900
      8 FAE         -2.6870    -2.7190    -5.4190 f          1 63Y      -0.100900
      9 CAN         -2.6680    -0.4130    -5.9730 ca         1 63Y       0.138900
     10 FAD         -3.8840    -0.5330    -6.5500 f          1 63Y      -0.107900
     11 CAG         -2.0310     0.8150    -5.9550 ca         1 63Y      -0.142000
     12 CAH         -0.7870     0.9410    -5.3650 ca         1 63Y       0.006000
     13 CAQ         -0.1780    -0.1640    -4.7860 ca         1 63Y      -0.025100
     14 CAT          1.0310    -0.0020    -2.3120 cc         1 63Y       0.112200
     15 SAL         -0.5940    -0.0020    -1.6540 ss         1 63Y      -0.286900
     16 C2           0.0030    -0.0000     2.3140 ca         1 63Y       0.769900
     17 NAB         -0.7150    -0.0040     3.5010 nv         1 63Y      -0.639500
     18 NAC          3.4380    -0.0000     1.3240 nv         1 63Y      -0.531500
     19 CAP          1.9410    -0.0010    -1.3450 cd         1 63Y      -0.011400
     20 CAA          3.4230    -0.0010    -1.6240 c3         1 63Y       0.055100
     21 H1          -2.5060     1.6780    -6.4050 ha         1 63Y       0.133000
     22 H2          -0.2900     1.9030    -5.3500 ha         1 63Y       0.130000
     23 H3          -0.9760     0.8610     3.9310 hn         1 63Y       0.281800
     24 H4          -0.9710    -0.8730     3.9270 hn         1 63Y       0.281800
     25 H5           3.8980     0.2550     2.1750 hn         1 63Y       0.283800
     26 H6           3.9770    -0.2980     0.5350 hn         1 63Y       0.283800
     27 H7           3.5900     0.0970    -2.6900 hc         1 63Y       0.021033
     28 H8           3.8560    -0.9310    -1.2750 hc         1 63Y       0.021033
     29 H9           3.8880     0.8300    -1.1080 hc         1 63Y       0.021033
     30 SAK          1.4080    -0.0040    -4.0330 ss         1 63Y      -0.233500
     31 FAF         -0.2250    -2.4770    -4.2500 f          1 63Y      -0.098900
@<TRIPOS>BOND
     1     1     2 ar  
     2     1     5 ar  
     3     1    15 1   
     4     2     3 ar  
     5     2    19 1   
     6     3     4 ar  
     7     3    18 1   
     8     4    16 ar  
     9     5    16 ar  
    10     6     7 ar  
    11     6    13 ar  
    12     6    31 1   
    13     7     8 1   
    14     7     9 ar  
    15     9    10 1   
    16     9    11 ar  
    17    11    12 ar  
    18    11    21 1   
    19    12    13 ar  
    20    12    22 1   
    21    13    30 1   
    22    14    15 1   
    23    14    19 2   
    24    14    30 1   
    25    16    17 1   
    26    17    23 1   
    27    17    24 1   
    28    18    25 1   
    29    18    26 1   
    30    19    20 1   
    31    20    27 1   
    32    20    28 1   
    33    20    29 1   
@<TRIPOS>SUBSTRUCTURE
     1 63Y         1 TEMP              0 ****  ****    0 ROOT
