@<TRIPOS>MOLECULE
molecule
   50    51     1     0     0
SMALL
bcc


@<TRIPOS>ATOM
      1 OAD          0.0000     0.0000     0.0000 o          1 640      -0.826300
      2 CAU          1.3480     0.0000     0.0000 c          1 640       0.859800
      3 OAG          1.9550     0.0000     1.0530 o          1 640      -0.826300
      4 CAH          2.0860     0.0000    -1.2770 ce         1 640      -0.067200
      5 CAI          3.4280     0.0010    -1.2760 cf         1 640      -0.298200
      6 CAV          4.1670     0.0010    -2.5550 c          1 640       0.668300
      7 OAE          3.5600     0.0010    -3.6070 o          1 640      -0.649100
      8 NAS          5.5160     0.0010    -2.5540 ns         1 640      -0.445500
      9 NAT          6.2160     0.0010    -3.7670 ns         1 640      -0.416500
     10 CAW          7.5640     0.0010    -3.7660 c          1 640       0.666700
     11 OAF          8.1710     0.0010    -2.7130 o          1 640      -0.633100
     12 CBA          8.3040     0.0020    -5.0460 ca         1 640      -0.266900
     13 CAP          7.6240    -0.1160    -6.2590 ca         1 640       0.446200
     14 NAR          8.2820    -0.1160    -7.3990 nb         1 640      -0.703000
     15 CAJ          9.5970    -0.0060    -7.4450 ca         1 640       0.433200
     16 CAM         10.3430     0.1150    -6.2870 ca         1 640      -0.267300
     17 CAZ          9.6980     0.1270    -5.0630 ca         1 640       0.014700
     18 CAQ         10.4770     0.2630    -3.7800 c3         1 640       0.010200
     19 CAX         11.9320     0.4890    -4.0980 ca         1 640      -0.090300
     20 CAK         12.4330     1.7770    -4.1640 ca         1 640      -0.122500
     21 CAN         13.7680     1.9840    -4.4560 ca         1 640      -0.129500
     22 CAY         14.6030     0.9050    -4.6800 ca         1 640      -0.078300
     23 CBB         16.0580     1.1310    -4.9980 c3         1 640      -0.022700
     24 CAB         16.7230     1.8780    -3.8400 c3         1 640      -0.080100
     25 CAC         16.7510    -0.2180    -5.1990 c3         1 640      -0.080100
     26 CAA         16.1780     1.9620    -6.2770 c3         1 640      -0.080100
     27 CAO         14.1020    -0.3810    -4.6120 ca         1 640      -0.129500
     28 CAL         12.7680    -0.5890    -4.3160 ca         1 640      -0.122500
     29 HAH          1.5450    -0.0010    -2.2160 ha         1 640       0.130000
     30 HAI          3.9690     0.0010    -0.3370 ha         1 640       0.150000
     31 HAS          6.0160    -0.0240    -1.6870 hn         1 640       0.362500
     32 HAT          5.7160     0.0400    -4.6330 hn         1 640       0.358500
     33 HAP          6.5450    -0.2090    -6.2620 h4         1 640       0.029100
     34 HAJ         10.0990    -0.0130    -8.4050 h4         1 640       0.019100
     35 HAM         11.4220     0.2080    -6.3380 ha         1 640       0.153000
     36 HAQ1        10.3710    -0.6430    -3.1960 hc         1 640       0.090200
     37 HAQ2        10.0960     1.1050    -3.2140 hc         1 640       0.090200
     38 HAK         11.7790     2.6230    -3.9890 ha         1 640       0.135000
     39 HAL         12.3760    -1.5970    -4.2620 ha         1 640       0.135000
     40 HAN         14.1610     2.9930    -4.5080 ha         1 640       0.131000
     41 HAO         14.7570    -1.2270    -4.7850 ha         1 640       0.131000
     42 HAB1        16.4860     1.3810    -2.9070 hc         1 640       0.035589
     43 HAB2        17.7970     1.8850    -3.9830 hc         1 640       0.035589
     44 HAB3        16.3560     2.8970    -3.8100 hc         1 640       0.035589
     45 HAC1        17.7980    -0.0560    -5.4280 hc         1 640       0.035589
     46 HAC2        16.6670    -0.8060    -4.2930 hc         1 640       0.035589
     47 HAC3        16.2800    -0.7480    -6.0180 hc         1 640       0.035589
     48 HAA1        15.5940     1.5000    -7.0640 hc         1 640       0.035589
     49 HAA2        15.8080     2.9640    -6.0930 hc         1 640       0.035589
     50 HAA3        17.2170     2.0120    -6.5800 hc         1 640       0.035589
@<TRIPOS>BOND
     1     1     2 1
     2     2     3 1
     3     2     4 1
     4     4     5 2
     5     5     6 1
     6     6     7 2
     7     6     8 1
     8     8     9 1
     9     9    10 1
    10    10    11 2
    11    10    12 1
    12    12    13 ar
    13    12    17 ar
    14    13    14 ar
    15    14    15 ar
    16    15    16 ar
    17    16    17 ar
    18    17    18 1
    19    18    19 1
    20    19    20 ar
    21    19    28 ar
    22    20    21 ar
    23    21    22 ar
    24    22    23 1
    25    22    27 ar
    26    23    24 1
    27    23    25 1
    28    23    26 1
    29    27    28 ar
    30     4    29 1
    31     5    30 1
    32     8    31 1
    33     9    32 1
    34    13    33 1
    35    15    34 1
    36    16    35 1
    37    18    36 1
    38    18    37 1
    39    20    38 1
    40    28    39 1
    41    21    40 1
    42    27    41 1
    43    24    42 1
    44    24    43 1
    45    24    44 1
    46    25    45 1
    47    25    46 1
    48    25    47 1
    49    26    48 1
    50    26    49 1
    51    26    50 1
@<TRIPOS>SUBSTRUCTURE
     1 640         1 TEMP              0 ****  ****    0 ROOT
