@<TRIPOS>MOLECULE
640
   50    53     1     0     0
SMALL
bcc


@<TRIPOS>ATOM
      1 OAD          0.0000     0.0000     0.0000 o          1 640      -0.581500
      2 CAU          1.3480     0.0000     0.0000 c3         1 640       0.495000
      3 OAG          1.9550     0.0000     1.0530 o          1 640      -0.581500
      4 CAH          2.0860     0.0000    -1.2770 c2         1 640      -0.092000
      5 CAI          3.4280     0.0010    -1.2760 c2         1 640      -0.153000
      6 CAV          4.1670     0.0010    -2.5550 c3         1 640       0.327000
      7 OAE          3.5600     0.0010    -3.6070 o          1 640      -0.496000
      8 NAS          5.5160     0.0010    -2.5540 n7         1 640      -0.060000
      9 NAT          6.2160     0.0010    -3.7670 ns         1 640       0.047000
     10 CAW          7.5640     0.0010    -3.7660 c2         1 640       0.259000
     11 OAF          8.1710     0.0010    -2.7130 o          1 640      -0.441000
     12 CBA          8.3040     0.0020    -5.0460 c2         1 640      -0.187000
     13 CAP          7.6240    -0.1160    -6.2590 c2         1 640      -0.037000
     14 NAR          8.2820    -0.1160    -7.3990 n2         1 640      -0.074000
     15 CAJ          9.5970    -0.0060    -7.4450 c2         1 640      -0.044000
     16 CAM         10.3430     0.1150    -6.2870 c2         1 640      -0.190000
     17 CAZ          9.6980     0.1270    -5.0630 c2         1 640       0.025000
     18 CAQ         10.4770     0.2630    -3.7800 c3         1 640      -0.020000
     19 CAX         11.9320     0.4890    -4.0980 ca         1 640      -0.085000
     20 CAK         12.4330     1.7770    -4.1640 ca         1 640      -0.094500
     21 CAN         13.7680     1.9840    -4.4560 ca         1 640      -0.109500
     22 CAY         14.6030     0.9050    -4.6800 ca         1 640      -0.079000
     23 CBB         16.0580     1.1310    -4.9980 c3         1 640      -0.018000
     24 CAB         16.7230     1.8780    -3.8400 c3         1 640      -0.112667
     25 CAC         16.7510    -0.2180    -5.1990 c3         1 640      -0.112667
     26 CAA         16.1780     1.9620    -6.2770 c3         1 640      -0.112667
     27 CAO         14.1020    -0.3810    -4.6120 ca         1 640      -0.109500
     28 CAL         12.7680    -0.5890    -4.3160 ca         1 640      -0.094500
     29 HAH          1.9370     0.8750    -0.6560 DU         1 640       0.071000
     30 HAI          3.5760     0.8760    -1.8970 DU         1 640      -0.023000
     31 HAS          6.0150    -0.0330    -1.6880 hn         1 640       0.141000
     32 HAT          5.7160     0.0400    -4.6330 hn         1 640       0.127000
     33 HAP          6.5450    -0.2090    -6.2620 h4         1 640       0.125000
     34 HAJ         10.0990    -0.0130    -8.4050 h4         1 640       0.111000
     35 HAM         11.4220     0.2080    -6.3380 ha         1 640       0.133000
     36 HAQ1        10.3710    -0.6430    -3.1960 hc         1 640       0.098000
     37 HAQ2        10.0960     1.1050    -3.2140 hc         1 640       0.098000
     38 HAK         11.7790     2.6230    -3.9890 ha         1 640       0.109500
     39 HAL         12.3760    -1.5970    -4.2620 ha         1 640       0.109500
     40 HAN         14.1610     2.9930    -4.5080 ha         1 640       0.112000
     41 HAO         14.7570    -1.2270    -4.7850 ha         1 640       0.112000
     42 HAB1        16.4890     1.3790    -2.9070 hc         1 640       0.045444
     43 HAB2        17.7960     1.8880    -3.9850 hc         1 640       0.045444
     44 HAB3        16.3540     2.8960    -3.8080 hc         1 640       0.045444
     45 HAC1        17.7980    -0.0560    -5.4290 hc         1 640       0.045444
     46 HAC2        16.2800    -0.7480    -6.0180 hc         1 640       0.045444
     47 HAC3        16.6680    -0.8050    -4.2930 hc         1 640       0.045444
     48 HAA1        15.8080     2.9640    -6.0930 hc         1 640       0.045444
     49 HAA2        17.2170     2.0120    -6.5800 hc         1 640       0.045444
     50 HAA3        15.5940     1.5000    -7.0640 hc         1 640       0.045444
@<TRIPOS>BOND
     1     1     2 1   
     2     2     3 1   
     3     2     4 1   
     4     2    29 1   
     5     4     5 1   
     6     4    29 1   
     7     5     6 1   
     8     5    30 1   
     9     6     7 1   
    10     6     8 1   
    11     6    30 1   
    12     8     9 1   
    13     8    31 1   
    14     9    10 1   
    15     9    32 1   
    16    10    11 1   
    17    10    12 1   
    18    12    13 1   
    19    12    17 1   
    20    13    14 1   
    21    13    33 1   
    22    14    15 1   
    23    15    16 1   
    24    15    34 1   
    25    16    17 1   
    26    16    35 1   
    27    17    18 1   
    28    18    19 1   
    29    18    36 1   
    30    18    37 1   
    31    19    20 1   
    32    19    28 1   
    33    20    21 1   
    34    20    38 1   
    35    21    22 1   
    36    21    40 1   
    37    22    23 1   
    38    22    27 1   
    39    23    24 1   
    40    23    25 1   
    41    23    26 1   
    42    24    42 1   
    43    24    43 1   
    44    24    44 1   
    45    25    45 1   
    46    25    46 1   
    47    25    47 1   
    48    26    48 1   
    49    26    49 1   
    50    26    50 1   
    51    27    28 1   
    52    27    41 1   
    53    28    39 1   
@<TRIPOS>SUBSTRUCTURE
     1 640         1 TEMP              0 ****  ****    0 ROOT
