@<TRIPOS>MOLECULE
molecule
   43    45     1     0     0
SMALL
bcc


@<TRIPOS>ATOM
      1 C1           0.0000     0.0000     0.0000 c3         1 641      -0.075400
      2 C2           1.5280     0.0000     0.0000 c3         1 641      -0.091400
      3 C3           2.0860     0.0000     1.4280 c3         1 641       0.128700
      4 C4           1.5250     1.1720     2.2400 c3         1 641      -0.091400
      5 C5          -0.0030     1.1720     2.2370 c3         1 641      -0.075400
      6 C6          -0.5630     1.1590     0.8180 c3         1 641      -0.080400
      7 C7           4.4120    -0.8890     1.8960 c          1 641       0.718500
      8 C8           5.8180    -0.4570     1.5460 c3         1 641      -0.163400
      9 C9           5.6690     1.0040     1.1430 c3         1 641      -0.178700
     10 C10          4.2280     1.1430     0.6960 c3         1 641       0.117000
     11 N11          3.5450     0.0740     1.3910 n          1 641      -0.493800
     12 C12          5.8990     1.8780     2.3650 c          1 641       0.680100
     13 N13          7.2270     2.2760     2.4540 ns         1 641      -0.486100
     14 O14          4.9740     2.1520     3.1230 o          1 641      -0.551100
     15 O15          4.1310    -1.9250     2.4820 o          1 641      -0.608500
     16 C15          7.8170     3.0910     3.4490 ca         1 641       0.087600
     17 C20          7.0300     3.5770     4.4800 ca         1 641      -0.166500
     18 C19          7.6130     4.3810     5.4610 ca         1 641       0.057900
     19 Cl2          6.6530     4.9950     6.7510 cl         1 641      -0.083400
     20 C18          8.9720     4.6860     5.3970 ca         1 641      -0.146000
     21 C17          9.7500     4.1880     4.3510 ca         1 641       0.057900
     22 C16          9.1680     3.3850     3.3710 ca         1 641      -0.166500
     23 Cl1         11.4280     4.5640     4.2710 cl         1 641      -0.083400
     24 HN13         7.8360     1.9490     1.7300 hn         1 641       0.322500
     25 H9           6.3510     1.2560     0.3400 hc         1 641       0.071700
     26 H101         4.1490     1.0080    -0.3760 h1         1 641       0.057700
     27 H102         3.8300     2.1050     0.9970 h1         1 641       0.057700
     28 H81          6.4660    -0.5460     2.4100 hc         1 641       0.083700
     29 H82          6.1970    -1.0410     0.7160 hc         1 641       0.083700
     30 H3           1.7940    -0.9240     1.9110 h1         1 641       0.080700
     31 H41          1.8780     2.1020     1.8100 hc         1 641       0.047950
     32 H42          1.8760     1.0940     3.2620 hc         1 641       0.047950
     33 H51         -0.3560     0.2920     2.7620 hc         1 641       0.043200
     34 H52         -0.3570     2.0590     2.7470 hc         1 641       0.043200
     35 H61         -0.3060     2.0910     0.3300 hc         1 641       0.040200
     36 H62         -1.6410     1.0650     0.8650 hc         1 641       0.040200
     37 H4          -0.3520     0.0860    -1.0210 hc         1 641       0.043200
     38 H1          -0.3520    -0.9330     0.4230 hc         1 641       0.043200
     39 H2           1.8810     0.8840    -0.5170 hc         1 641       0.047950
     40 H5           1.8810    -0.8840    -0.5170 hc         1 641       0.047950
     41 H16          9.7670     2.9950     2.5560 ha         1 641       0.167000
     42 H18          9.4240     5.3100     6.1590 ha         1 641       0.159000
     43 H20          5.9530     3.4700     4.4390 ha         1 641       0.167000
@<TRIPOS>BOND
     1     1     6 1
     2     1    37 1
     3     1    38 1
     4     1     2 1
     5     2     3 1
     6     2    39 1
     7     2    40 1
     8     3    11 1
     9     3    30 1
    10     3     4 1
    11     4    31 1
    12     4    32 1
    13     4     5 1
    14     5    33 1
    15     5    34 1
    16     5     6 1
    17     6    35 1
    18     6    36 1
    19     7    11 1
    20     7    15 2
    21     7     8 1
    22     8     9 1
    23     8    28 1
    24     8    29 1
    25     9    12 1
    26     9    25 1
    27     9    10 1
    28    10    26 1
    29    10    27 1
    30    10    11 1
    31    12    13 1
    32    12    14 2
    33    13    24 1
    34    13    16 1
    35    16    22 ar
    36    16    17 ar
    37    17    18 ar
    38    17    43 1
    39    18    20 ar
    40    18    19 1
    41    20    21 ar
    42    20    42 1
    43    21    22 ar
    44    21    23 1
    45    22    41 1
@<TRIPOS>SUBSTRUCTURE
     1 641         1 TEMP              0 ****  ****    0 ROOT
