@<TRIPOS>MOLECULE
molecule
   58    63     1     0     0
SMALL
bcc


@<TRIPOS>ATOM
      1 C1           0.0000     0.0000     0.0000 cx         1 642      -0.139700
      2 C2           1.5220     0.0000     0.0000 cx         1 642      -0.248000
      3 C3           0.7690     0.0000     1.3240 cx         1 642      -0.103400
      4 C4          -0.6970    -1.2750    -0.4010 c          1 642       0.913600
      5 O1          -0.0490    -2.2460    -0.7100 o          1 642      -0.840300
      6 O2          -2.0380    -1.3310    -0.4150 o          1 642      -0.840300
      7 C5           2.3220     1.1880    -0.4650 c          1 642       0.738500
      8 N1           3.5670     0.7950    -0.7970 ns         1 642      -0.596900
      9 O3           1.9080     2.3250    -0.5310 o          1 642      -0.658500
     10 C6           3.7500    -0.6450    -0.5820 c3         1 642       0.135000
     11 C7           2.3230    -1.2300    -0.4670 c3         1 642      -0.017400
     12 C8           4.4720    -1.2610    -1.7520 ca         1 642      -0.114300
     13 C9           4.1940    -0.8320    -3.0370 ca         1 642      -0.078000
     14 C10          4.8560    -1.3940    -4.1120 ca         1 642      -0.190500
     15 C11          5.7980    -2.3900    -3.9010 ca         1 642       0.127100
     16 C12          6.0740    -2.8190    -2.6110 ca         1 642      -0.190500
     17 C13          5.4150    -2.2490    -1.5390 ca         1 642      -0.078000
     18 O4           6.4490    -2.9450    -4.9560 os         1 642      -0.338900
     19 C14          7.4070    -3.9660    -4.6650 c3         1 642       0.185700
     20 C15          8.0220    -4.4590    -5.9490 ca         1 642      -0.039300
     21 N2           9.1500    -5.3610    -8.3140 nb         1 642      -0.692000
     22 C16          8.2370    -4.4090    -8.3330 cp         1 642       0.498800
     23 C17          7.6500    -3.9340    -7.1500 ca         1 642      -0.218300
     24 C18          9.5580    -5.9090    -7.1660 ca         1 642       0.426600
     25 C19          9.0030    -5.4720    -5.9380 ca         1 642      -0.151300
     26 C20          9.4360    -6.0530    -4.7360 ca         1 642      -0.111000
     27 C21         10.3850    -7.0300    -4.7630 ca         1 642      -0.129000
     28 C22         10.9320    -7.4610    -5.9700 ca         1 642      -0.123000
     29 C23         10.5350    -6.9190    -7.1540 ca         1 642      -0.165300
     30 C24          7.8180    -3.8320    -9.6330 cp         1 642      -0.151500
     31 C25          8.3850    -4.2940   -10.8190 ca         1 642      -0.097500
     32 C26          7.9910    -3.7540   -12.0260 ca         1 642      -0.138500
     33 C27          7.0350    -2.7550   -12.0600 ca         1 642      -0.119000
     34 C28          6.4680    -2.2920   -10.8870 ca         1 642      -0.138500
     35 C29          6.8500    -2.8310    -9.6740 ca         1 642      -0.097500
     36 H1          -0.4530     0.9490    -0.2610 hc         1 642       0.083700
     37 H3           0.7710     0.9390     1.8640 hc         1 642       0.068700
     38 H3A          0.7710    -0.9390     1.8640 hc         1 642       0.068700
     39 HN1          4.2780     1.4080    -1.1450 hn         1 642       0.317500
     40 H6           4.2980    -0.8180     0.3370 h1         1 642       0.042700
     41 H7           2.2870    -2.0180     0.2760 hc         1 642       0.083700
     42 H7A          1.9690    -1.5780    -1.4300 hc         1 642       0.083700
     43 H9           3.4580    -0.0540    -3.2010 ha         1 642       0.143000
     44 H10          4.6380    -1.0580    -5.1190 ha         1 642       0.130500
     45 H12          6.8110    -3.5950    -2.4440 ha         1 642       0.130500
     46 H13          5.6300    -2.5840    -0.5320 ha         1 642       0.143000
     47 H14          6.9160    -4.7890    -4.1600 h1         1 642       0.052700
     48 H14A         8.1820    -3.5610    -4.0250 h1         1 642       0.052700
     49 H17          6.9010    -3.1520    -7.1910 ha         1 642       0.165000
     50 H20          9.0180    -5.7270    -3.7920 ha         1 642       0.133000
     51 H21         10.7190    -7.4770    -3.8350 ha         1 642       0.129000
     52 H22         11.6860    -8.2390    -5.9660 ha         1 642       0.129000
     53 H23         10.9710    -7.2660    -8.0840 ha         1 642       0.145000
     54 H25          9.1340    -5.0760   -10.7930 ha         1 642       0.147000
     55 H26          8.4320    -4.1120   -12.9490 ha         1 642       0.130000
     56 H27          6.7300    -2.3310   -13.0100 ha         1 642       0.126000
     57 H28          5.7170    -1.5120   -10.9200 ha         1 642       0.130000
     58 H29          6.4050    -2.4680    -8.7550 ha         1 642       0.147000
@<TRIPOS>BOND
     1     3     1 1   
     2     2     1 1   
     3     1     4 1   
     4     1    36 1   
     5     3     2 1   
     6     2     7 1   
     7     2    11 1   
     8     3    37 1   
     9     3    38 1   
    10     5     4 1   
    11     4     6 1   
    12     9     7 2   
    13     7     8 1   
    14     8    10 1   
    15     8    39 1   
    16    11    10 1   
    17    10    12 1   
    18    10    40 1   
    19    11    41 1   
    20    11    42 1   
    21    12    17 ar  
    22    12    13 ar  
    23    13    14 ar  
    24    13    43 1   
    25    14    15 ar  
    26    14    44 1   
    27    16    15 ar  
    28    15    18 1   
    29    17    16 ar  
    30    16    45 1   
    31    17    46 1   
    32    18    19 1   
    33    19    20 1   
    34    19    47 1   
    35    19    48 1   
    36    23    20 ar  
    37    20    25 ar  
    38    22    21 ar  
    39    21    24 ar  
    40    23    22 ar  
    41    30    22 1   
    42    23    49 1   
    43    25    24 ar  
    44    24    29 ar  
    45    25    26 ar  
    46    26    27 ar  
    47    26    50 1   
    48    27    28 ar  
    49    27    51 1   
    50    29    28 ar  
    51    28    52 1   
    52    29    53 1   
    53    35    30 ar  
    54    31    30 ar  
    55    32    31 ar  
    56    31    54 1   
    57    33    32 ar  
    58    32    55 1   
    59    34    33 ar  
    60    33    56 1   
    61    34    35 ar  
    62    34    57 1   
    63    35    58 1   
@<TRIPOS>SUBSTRUCTURE
     1 642         1 TEMP              0 ****  ****    0 ROOT
