@<TRIPOS>MOLECULE
643
   62    65     1     0     0
SMALL
bcc


@<TRIPOS>ATOM
      1 C4          1.6320    1.3920    1.2960 c2        1 643     -0.057000
      2 C5          2.8930    0.3600   -0.4660 c3        1 643     -0.213000
      3 C6          2.2410    0.0750    0.9190 c3        1 643     -0.075000
      4 C7          1.1150   -0.9200    0.6420 cx        1 643     -0.087000
      5 C15        -1.5890   -0.9450    4.0340 c2        1 643     -0.262000
      6 C17        -0.9830    1.4490    4.5560 c3        1 643     -0.152000
      7 C21        -4.0420   -3.8180    9.2610 c2        1 643      0.079000
      8 C22        -3.5780   -4.9420    9.8790 c2        1 643     -0.185000
      9 C26        -4.4300   -3.8970    7.8200 c3        1 643     -0.200000
     10 C28        -3.5810   -1.2830    9.2270 c2        1 643     -0.197000
     11 C1          0.5410    1.5260    2.0720 c2        1 643     -0.077000
     12 C2         -0.1640    0.3230    2.4880 c2        1 643     -0.202000
     13 C3         -0.1290   -0.7870    1.5120 cx        1 643     -0.064000
     14 N8          1.1060   -1.0960   -0.8010 n3        1 643     -0.190000
     15 C9          2.0160   -0.3990   -1.4640 c1        1 643     -0.028000
     16 C11         2.8550    1.8630   -0.5570 c2        1 643      0.329000
     17 O12         2.2090    2.4320    0.5460 os        1 643     -0.188000
     18 O13         3.3200    2.6630   -1.3580 o         1 643     -0.292000
     19 C14        -2.1590   -1.0730    5.2620 c2        1 643     -0.019000
     20 C16        -0.8850    0.2510    3.6430 c2        1 643      0.038000
     21 C18        -1.5010    1.2170    5.9260 c1        1 643     -0.286000
     22 C19        -2.0680    0.0120    6.1880 c2        1 643     -0.169000
     23 O20        -2.6030   -0.1170    7.5000 os        1 643     -0.071000
     24 C23        -3.5160   -6.1870    9.1210 c2        1 643      0.088000
     25 N24        -3.8310   -6.2940    7.8500 n2        1 643     -0.233000
     26 C25        -4.2930   -5.2250    7.1480 c1        1 643      0.035000
     27 C27        -4.0740   -2.5060    9.8800 c2        1 643     -0.068000
     28 C29        -3.7790   -0.2940   10.1870 c2        1 643      0.056000
     29 O30        -4.3650   -0.9080   11.3240 os        1 643     -0.069000
     30 N31        -4.5180   -2.1990   11.1190 n2        1 643     -0.006000
     31 CL32       -3.0530   -4.9870   11.4870 cl        1 643      0.014000
     32 C33        -3.5110    1.1150   10.2090 c2        1 643     -0.131000
     33 C34        -2.4280    3.8440    7.9070 c3        1 643     -0.297000
     34 C35        -3.8200    1.9320   11.2190 c2        1 643     -0.172000
     35 C36        -3.0510   -1.2890    7.8740 c1        1 643     -0.052000
     36 CL37       -6.0720   -3.3230    7.5650 cl        1 643     -0.034000
     37 H4          2.9580   -0.3010    1.6830 hc        1 643      0.131000
     38 H10         0.4140   -2.9640    1.3180 hc        1 643      0.116500
     39 H10A        0.4200   -1.6710   -1.2240 hn        1 643      0.246000
     40 H10B        1.4270   -2.0630    2.5520 hc        1 643      0.116500
     41 H15        -1.6300   -1.7710    3.3100 ha        1 643      0.113000
     42 H1          0.1440    2.5130    2.3670 ha        1 643      0.175000
     43 H3         -1.1210   -0.9730    1.0490 hc        1 643      0.122000
     44 H9          3.9460   -0.0020   -0.5580 hc        1 643      0.153000
     45 H14        -2.6820   -1.9970    5.5590 ha        1 643      0.132000
     46 H18        -0.0320    2.9500    6.7660 ha        1 643      0.005000
     47 H23        -3.1780   -7.0980    9.6550 h4        1 643      0.161000
     48 H25        -3.7490   -3.1480    7.2560 h1        1 643      0.264000
     49 H33        -3.0060    1.4800    9.2860 ha        1 643      0.194000
     50 H34        -3.4230    4.2450    7.6180 hc        1 643      0.072500
     51 H34A       -2.1990    2.9230    7.3090 hc        1 643      0.072500
     52 H34B       -1.6470    4.6100    7.7070 hc        1 643      0.072500
     53 H35        -2.4300    3.5960    8.9920 hc        1 643      0.072500
     54 H35A       -4.3150    1.5860   12.1360 ha        1 643      0.120500
     55 H35B       -3.5880    3.0050   11.1750 ha        1 643      0.120500
     56 H36        -0.7040    1.4290    8.9390 ha        1 643      0.005000
     57 H36A       -0.8580    1.4320    8.2760 ha        1 643      0.005000
     58 H38         0.6270    3.1270    6.7290 ha        1 643      0.005000
     59 H38A       -1.7490    2.1420    4.0770 hc        1 643      0.138000
     60 H38B        1.1450    1.5330    4.9580 ha        1 643      0.012000
     61 C10         0.7820   -1.9800    1.6590 cx        1 643     -0.191000
     62 C38         0.2980    2.1780    4.6580 c1        1 643      0.005000
@<TRIPOS>BOND
     1    1    3 1   
     2    1   11 1   
     3    1   17 1   
     4    2    3 1   
     5    2   15 1   
     6    2   16 1   
     7    2   44 1   
     8    3    4 1   
     9    3   37 1   
    10    4   13 1   
    11    4   14 1   
    12    4   61 1   
    13    5   19 1   
    14    5   20 1   
    15    5   41 1   
    16    6   20 1   
    17    6   21 1   
    18    6   59 1   
    19    6   62 1   
    20    7    8 1   
    21    7    9 1   
    22    7   27 1   
    23    8   24 1   
    24    8   31 1   
    25    9   26 1   
    26    9   36 1   
    27    9   48 1   
    28   10   27 1   
    29   10   28 1   
    30   10   35 1   
    31   11   12 1   
    32   11   42 1   
    33   12   13 1   
    34   12   20 1   
    35   13   43 1   
    36   13   61 1   
    37   14   15 1   
    38   14   39 1   
    39   16   17 1   
    40   16   18 1   
    41   19   22 1   
    42   19   45 1   
    43   21   22 1   
    44   22   23 1   
    45   23   35 1   
    46   24   25 1   
    47   24   47 1   
    48   25   26 1   
    49   27   30 1   
    50   28   29 1   
    51   28   32 1   
    52   29   30 1   
    53   32   34 1   
    54   32   49 1   
    55   33   50 1   
    56   33   51 1   
    57   33   52 1   
    58   33   53 1   
    59   34   54 1   
    60   34   55 1   
    61   38   61 1   
    62   40   61 1   
    63   46   58 1   
    64   56   57 1   
    65   60   62 1   
@<TRIPOS>SUBSTRUCTURE
     1 643         1 TEMP              0 ****  ****    0 ROOT
