@<TRIPOS>MOLECULE
644
   42    44     1     0     0
SMALL
bcc


@<TRIPOS>ATOM
      1 O05          0.0000     0.0000     0.0000 o          1 644      -0.870300
      2 C21          1.2150     0.0000     0.0000 c          1 644       0.954700
      3 O06          1.8880     0.0000     1.1670 o          1 644      -0.870300
      4 C15          1.9520    -0.0040    -1.2760 ca         1 644      -0.105600
      5 C16          3.3480     0.0580    -1.2820 ca         1 644      -0.081500
      6 C17          4.0310     0.0540    -2.4780 ca         1 644      -0.178500
      7 C18          3.3420    -0.0140    -3.6780 ca         1 644      -0.150500
      8 C19          1.9630    -0.0750    -3.6900 ca         1 644      -0.144000
      9 C14          1.2560    -0.0780    -2.4930 ca         1 644       0.072100
     10 N02         -0.1320    -0.1470    -2.5020 nu         1 644      -0.244500
     11 C10         -0.8860     1.0110    -2.3560 ca         1 644       0.147100
     12 C09         -2.2820     0.9310    -2.2270 ca         1 644      -0.189600
     13 C20         -2.9550    -0.3750    -2.2460 c          1 644       0.990200
     14 O04         -3.3740    -0.9000    -3.4140 o          1 644      -0.909300
     15 O03         -3.1340    -0.9820    -1.2070 o          1 644      -0.909300
     16 C11         -0.2620     2.2490    -2.3300 ca         1 644      -0.258500
     17 C12         -1.0090     3.4030    -2.1860 ca         1 644      -0.063000
     18 C13         -2.3850     3.3400    -2.0630 ca         1 644      -0.258500
     19 C08         -3.0310     2.1120    -2.0800 ca         1 644       0.147100
     20 N01         -4.4130     2.0490    -1.9520 nu         1 644      -0.244500
     21 C03         -5.1450     3.2120    -1.7420 ca         1 644       0.072100
     22 C04         -5.5620     3.5530    -0.4620 ca         1 644      -0.144000
     23 C05         -6.2870     4.7080    -0.2550 ca         1 644      -0.150500
     24 C06         -6.6070     5.5370    -1.3200 ca         1 644      -0.178500
     25 C07         -6.2010     5.2160    -2.5970 ca         1 644      -0.081500
     26 C02         -5.4610     4.0520    -2.8220 ca         1 644      -0.105600
     27 C01         -5.0190     3.7060    -4.1850 c          1 644       0.954700
     28 O02         -4.4640     2.6460    -4.3920 o          1 644      -0.870300
     29 O01         -5.2320     4.5650    -5.2000 o          1 644      -0.870300
     30 H2           3.8920     0.1110    -0.3460 ha         1 644       0.113500
     31 H3           5.1140     0.1020    -2.4810 ha         1 644       0.062000
     32 H4           3.8880    -0.0140    -4.6130 ha         1 644       0.064000
     33 H5           1.4320    -0.1300    -4.6330 ha         1 644       0.102000
     34 H6          -0.5880    -1.0300    -2.6140 hn         1 644       0.311800
     35 H8           0.8150     2.3130    -2.4250 ha         1 644       0.092500
     36 H9          -0.5120     4.3660    -2.1680 ha         1 644       0.051000
     37 H10         -2.9600     4.2510    -1.9510 ha         1 644       0.092500
     38 H11         -4.8820     1.1670    -2.0100 hn         1 644       0.311800
     39 H12         -5.3160     2.9110     0.3760 ha         1 644       0.102000
     40 H13         -6.6100     4.9690     0.7450 ha         1 644       0.064000
     41 H14         -7.1790     6.4400    -1.1470 ha         1 644       0.062000
     42 H15         -6.4510     5.8680    -3.4250 ha         1 644       0.113500
@<TRIPOS>BOND
     1     1     2 1   
     2     2     3 1   
     3     2     4 1   
     4     4     5 ar  
     5     4     9 ar  
     6     5     6 ar  
     7     5    30 1   
     8     6     7 ar  
     9     6    31 1   
    10     7     8 ar  
    11     7    32 1   
    12     8     9 ar  
    13     8    33 1   
    14     9    10 1   
    15    10    11 1   
    16    10    34 1   
    17    11    12 ar  
    18    11    16 ar  
    19    12    13 1   
    20    12    19 ar  
    21    13    14 1   
    22    13    15 1   
    23    16    17 ar  
    24    16    35 1   
    25    17    18 ar  
    26    17    36 1   
    27    18    19 ar  
    28    18    37 1   
    29    19    20 1   
    30    20    21 1   
    31    20    38 1   
    32    21    22 ar  
    33    21    26 ar  
    34    22    23 ar  
    35    22    39 1   
    36    23    24 ar  
    37    23    40 1   
    38    24    25 ar  
    39    24    41 1   
    40    25    26 ar  
    41    25    42 1   
    42    26    27 1   
    43    27    28 1   
    44    27    29 1   
@<TRIPOS>SUBSTRUCTURE
     1 644         1 TEMP              0 ****  ****    0 ROOT
