@<TRIPOS>MOLECULE
645
   50    52     1     0     0
SMALL
bcc


@<TRIPOS>ATOM
      1 O1         -0.3480   -0.2090   -0.9970 oh        1 645     -0.478100
      2 C1          0.9290   -0.3540   -0.5650 cc        1 645      0.188800
      3 C2          1.4490   -0.9760    0.6130 cd        1 645     -0.413900
      4 C3          0.5990   -1.5690    1.6120 c         1 645      0.636300
      5 O2         -0.6270   -1.6800    1.4170 o         1 645     -0.573100
      6 C4          1.1800   -2.0570    2.8920 ca        1 645     -0.066600
      7 C5          1.2800   -1.2180    4.0120 ca        1 645      0.018400
      8 CL1         0.8020    0.4080    3.9280 cl        1 645     -0.061400
      9 C6          1.7660   -1.7200    5.2230 ca        1 645     -0.018000
     10 C7          2.1580   -3.0570    5.3350 ca        1 645     -0.360500
     11 C8          2.0370   -3.8910    4.2170 ca        1 645     -0.025000
     12 C9          1.5520   -3.4000    3.0080 ca        1 645     -0.119000
     13 S1          2.7160   -3.6690    6.8010 sy        1 645      1.395300
     14 O3          2.6540   -5.0700    6.7820 o         1 645     -0.653300
     15 O4          2.0950   -3.0020    7.8650 o         1 645     -0.653300
     16 C10         4.3330   -3.1830    6.7210 c3        1 645     -0.364300
     17 C11         2.8860   -0.8010    0.4770 cd        1 645      0.421800
     18 N1          3.1710   -0.1320   -0.6750 nc        1 645     -0.484800
     19 N2          2.0080    0.1390   -1.3010 na        1 645      0.091400
     20 C12         1.9010    0.8750   -2.5870 c3        1 645      0.091700
     21 C13         3.2780    1.2860   -3.1260 c3        1 645     -0.107100
     22 C14         1.0620    2.1480   -2.3930 c3        1 645     -0.107100
     23 C15         1.2160   -0.0090   -3.6410 c3        1 645     -0.107100
     24 C16         3.9450   -1.2650    1.3690 ca        1 645     -0.113500
     25 C17         4.5680   -0.3960    2.2780 ca        1 645      0.049400
     26 CL2         4.0930    1.2280    2.3990 cl        1 645     -0.063400
     27 C18         5.6010   -0.8550    3.1040 ca        1 645     -0.129000
     28 C19         6.0140   -2.1860    3.0080 ca        1 645      0.025400
     29 CL3         7.2610   -2.7500    4.0150 cl        1 645     -0.083400
     30 C20         5.4150   -3.0560    2.0910 ca        1 645     -0.131000
     31 C21         4.3860   -2.5910    1.2770 ca        1 645     -0.090000
     32 HO1        -0.9280   -0.6290   -0.3280 ho        1 645      0.482000
     33 H6          1.8220   -1.0610    6.1090 ha        1 645      0.168000
     34 H8          2.3140   -4.9580    4.3060 ha        1 645      0.165000
     35 H9          1.4500   -4.0710    2.1410 ha        1 645      0.152000
     36 H101        4.8530   -3.4970    5.7820 h1        1 645      0.117367
     37 H102        4.9270   -3.6210    7.5630 h1        1 645      0.117367
     38 H103        4.4580   -2.0750    6.7950 h1        1 645      0.117367
     39 H131        3.8050    1.9600   -2.4110 hc        1 645      0.054922
     40 H132        3.1260    1.8310   -4.0890 hc        1 645      0.054922
     41 H133        3.9170    0.3910   -3.3180 hc        1 645      0.054922
     42 H141        0.0380    1.8970   -2.0220 hc        1 645      0.054922
     43 H142        0.9690    2.6660   -3.3780 hc        1 645      0.054922
     44 H143        1.5530    2.8410   -1.6690 hc        1 645      0.054922
     45 H151        0.1970   -0.3160   -3.3010 hc        1 645      0.054922
     46 H152        1.1160    0.5770   -4.5860 hc        1 645      0.054922
     47 H153        1.8230   -0.9220   -3.8480 hc        1 645      0.054922
     48 H18         6.0860   -0.1690    3.8160 ha        1 645      0.164000
     49 H20         5.7560   -4.0990    2.0080 ha        1 645      0.154000
     50 H21         3.9160   -3.2700    0.5480 ha        1 645      0.150000
@<TRIPOS>BOND
     1    1    2 1   
     2    1   32 1   
     3    2    3 2   
     4    2   19 1   
     5    3    4 1   
     6    3   17 1   
     7    4    5 2   
     8    4    6 1   
     9    6    7 ar  
    10    6   12 ar  
    11    7    8 1   
    12    7    9 ar  
    13    9   10 ar  
    14    9   33 1   
    15   10   11 ar  
    16   10   13 1   
    17   11   12 ar  
    18   11   34 1   
    19   12   35 1   
    20   13   14 2   
    21   13   15 2   
    22   13   16 1   
    23   16   36 1   
    24   16   37 1   
    25   16   38 1   
    26   17   18 2   
    27   17   24 1   
    28   18   19 1   
    29   19   20 1   
    30   20   21 1   
    31   20   22 1   
    32   20   23 1   
    33   21   39 1   
    34   21   40 1   
    35   21   41 1   
    36   22   42 1   
    37   22   43 1   
    38   22   44 1   
    39   23   45 1   
    40   23   46 1   
    41   23   47 1   
    42   24   25 ar  
    43   24   31 ar  
    44   25   26 1   
    45   25   27 ar  
    46   27   28 ar  
    47   27   48 1   
    48   28   29 1   
    49   28   30 ar  
    50   30   31 ar  
    51   30   49 1   
    52   31   50 1   
@<TRIPOS>SUBSTRUCTURE
     1 645         1 TEMP              0 ****  ****    0 ROOT
