@<TRIPOS>MOLECULE
molecule
   50    52     1     0     0
SMALL
bcc


@<TRIPOS>ATOM
      1 O1           0.0000     0.0000     0.0000 oh         1 645      -0.486100
      2 C1           1.3540     0.0000     0.0000 cc         1 645       0.165800
      3 C2           2.1750     0.0000     1.1230 cd         1 645      -0.424900
      4 C3           1.7490     0.0050     2.5260 c          1 645       0.617300
      5 O2           1.4990     1.0570     3.0830 o          1 645      -0.486100
      6 C4           1.6250    -1.2690     3.2630 ca         1 645      -0.111600
      7 C5           1.1460    -1.2760     4.5760 ca         1 645       0.048400
      8 Cl1          0.6890     0.2130     5.3440 cl         1 645      -0.061400
      9 C6           1.0250    -2.4710     5.2580 ca         1 645      -0.041000
     10 C7           1.3890    -3.6570     4.6470 ca         1 645      -0.268500
     11 C8           1.8690    -3.6570     3.3490 ca         1 645      -0.050000
     12 C9           1.9880    -2.4710     2.6550 ca         1 645      -0.093000
     13 S1           1.2390    -5.1770     5.5260 sy         1 645       1.190300
     14 O3           1.0800    -6.1300     4.4840 o          1 645      -0.611800
     15 O4           0.2070    -4.9010     6.4610 o          1 645      -0.611800
     16 C10          2.8510    -5.3430     6.3410 c3         1 645      -0.224300
     17 C11          3.5540     0.0020     0.6210 cd         1 645       0.426800
     18 N1           3.4870    -0.0030    -0.6900 nc         1 645      -0.480800
     19 N2           2.1470    -0.0070    -1.0860 na         1 645       0.079400
     20 C12          1.6780    -0.0140    -2.4730 c3         1 645       0.079700
     21 C13          2.8810    -0.0160    -3.4190 c3         1 645      -0.099433
     22 C14          0.8300     1.2330    -2.7310 c3         1 645      -0.099433
     23 C15          0.8330    -1.2660    -2.7210 c3         1 645      -0.099433
     24 C16          4.7890     0.0080     1.4390 ca         1 645      -0.115500
     25 C17          5.0810     1.0990     2.2580 ca         1 645       0.054400
     26 Cl2          3.9940     2.4490     2.3260 cl         1 645      -0.064400
     27 C18          6.2320     1.0960     3.0220 ca         1 645      -0.120000
     28 C19          7.0980     0.0190     2.9690 ca         1 645       0.043400
     29 Cl3          8.5460     0.0250     3.9270 cl         1 645      -0.096400
     30 C20          6.8160    -1.0630     2.1530 ca         1 645      -0.129000
     31 C21          5.6680    -1.0730     1.3890 ca         1 645      -0.087000
     32 HO1         -0.3140     0.7400     0.4930 ho         1 645       0.447000
     33 H6           0.6530    -2.4790     6.2750 ha         1 645       0.167000
     34 H8           2.1510    -4.5900     2.8770 ha         1 645       0.156000
     35 H9           2.3630    -2.4730     1.6390 ha         1 645       0.154000
     36 H101         3.0340    -4.4730     6.9590 h1         1 645       0.100367
     37 H102         2.8530    -6.2320     6.9600 h1         1 645       0.100367
     38 H103         3.6290    -5.4240     5.5910 h1         1 645       0.100367
     39 H131         2.5330    -0.0150    -4.4450 hc         1 645       0.052256
     40 H132         3.4780    -0.9010    -3.2410 hc         1 645       0.052256
     41 H133         3.4820     0.8680    -3.2400 hc         1 645       0.052256
     42 H141         1.2970     2.0910    -2.2630 hc         1 645       0.052256
     43 H142         0.7510     1.4010    -3.7980 hc         1 645       0.052256
     44 H143        -0.1600     1.0890    -2.3150 hc         1 645       0.052256
     45 H151        -0.1150    -1.1690    -2.2060 hc         1 645       0.052256
     46 H152         0.6570    -1.3780    -3.7840 hc         1 645       0.052256
     47 H153         1.3600    -2.1360    -2.3480 hc         1 645       0.052256
     48 H18          6.4600     1.9420     3.6580 ha         1 645       0.162000
     49 H20          7.4990    -1.9030     2.1140 ha         1 645       0.150000
     50 H21          5.4490    -1.9210     0.7510 ha         1 645       0.150000
@<TRIPOS>BOND
     1     1     2 1   
     2     1    32 1   
     3     2     3 2   
     4     2    19 1   
     5     3     4 1   
     6     3    17 1   
     7     4     5 2   
     8     4     6 1   
     9     6     7 ar  
    10     6    12 ar  
    11     7     8 1   
    12     7     9 ar  
    13     9    10 ar  
    14     9    33 1   
    15    10    11 ar  
    16    10    13 1   
    17    11    12 ar  
    18    11    34 1   
    19    12    35 1   
    20    13    14 2   
    21    13    15 2   
    22    13    16 1   
    23    16    36 1   
    24    16    37 1   
    25    16    38 1   
    26    17    18 2   
    27    17    24 1   
    28    18    19 1   
    29    19    20 1   
    30    20    21 1   
    31    20    22 1   
    32    20    23 1   
    33    21    39 1   
    34    21    40 1   
    35    21    41 1   
    36    22    42 1   
    37    22    43 1   
    38    22    44 1   
    39    23    45 1   
    40    23    46 1   
    41    23    47 1   
    42    24    25 ar  
    43    24    31 ar  
    44    25    26 1   
    45    25    27 ar  
    46    27    28 ar  
    47    27    48 1   
    48    28    29 1   
    49    28    30 ar  
    50    30    31 ar  
    51    30    49 1   
    52    31    50 1   
@<TRIPOS>SUBSTRUCTURE
     1 645         1 TEMP              0 ****  ****    0 ROOT
