@<TRIPOS>MOLECULE
molecule
   56    59     1     0     0
SMALL
bcc


@<TRIPOS>ATOM
      1 CAA          0.0000     0.0000     0.0000 c3         1 646      -0.102400
      2 CAB          4.8400    -0.0010    -1.6000 c3         1 646      -0.026800
      3 CAC          4.7870    -0.0010     1.5120 c3         1 646       0.069600
      4 OAD          0.6790     0.9530    -4.4030 o          1 646      -0.624300
      5 OAE         -0.0810     1.4300    -2.0710 o          1 646      -0.624300
      6 CAH          6.8880     6.9120    -3.8160 ca         1 646       0.455200
      7 CAI          6.0160     5.8470    -3.8860 ca         1 646      -0.287300
      8 CAJ          3.5420     4.1250    -4.0670 ca         1 646      -0.142000
      9 CAK          2.6240     4.7120    -1.9170 ca         1 646      -0.142000
     10 CAL          4.2040     7.4190    -3.8620 ca         1 646      -0.214300
     11 CAM          6.0090    11.0870    -1.1410 c3         1 646       0.160800
     12 CAN          8.3510    11.4270    -1.6510 c3         1 646       0.160800
     13 CAO          5.9070    10.0750    -2.2850 c3         1 646       0.085800
     14 CAP          8.2490    10.4160    -2.7950 c3         1 646       0.085800
     15 NAQ          6.4430     8.1540    -3.7720 nb         1 646      -0.636000
     16 NAR          2.2720     0.0000     1.0620 nc         1 646      -0.509800
     17 NAS          7.0470    12.0780    -1.4580 n7         1 646      -0.825200
     18 NAT          1.8890     0.0010    -2.4750 nu         1 646      -0.738500
     19 CAU          1.5060     0.0000     0.0000 cd         1 646       0.359600
     20 CAV          3.6180     0.0000    -0.7180 cc         1 646      -0.069600
     21 CAW          2.7680     2.9810    -4.0780 ca         1 646       0.121400
     22 CAX          1.8580     3.5620    -1.9350 ca         1 646       0.121400
     23 CAY          4.6390     6.0950    -3.9110 cp         1 646       0.037000
     24 CAZ          3.4750     4.9970    -2.9820 cp         1 646      -0.003000
     25 CBA          5.1490     8.4350    -3.7980 ca         1 646       0.272200
     26 CBB          2.3270     0.0010    -1.1370 cd         1 646      -0.099700
     27 CBC          1.9280     2.7000    -3.0150 ca         1 646      -0.315500
     28 NBD          7.2110     9.4250    -2.4780 nh         1 646      -0.475300
     29 NBE          3.6090    -0.0010     0.6410 na         1 646       0.063400
     30 SBF          0.9430     1.2390    -3.0370 sy         1 646       1.419200
     31 HAA         -0.3610    -0.5670     0.8490 hc         1 646       0.058367
     32 HAAA        -0.3610    -0.4520    -0.9160 hc         1 646       0.058367
     33 HAAB        -0.3610     1.0190     0.0660 hc         1 646       0.058367
     34 HAB          5.4820    -0.8290    -1.3260 hc         1 646       0.052033
     35 HABA         5.3790     0.9300    -1.4720 hc         1 646       0.052033
     36 HABB         4.5380    -0.1040    -2.6350 hc         1 646       0.052033
     37 HAC          5.3550    -0.9090     1.3490 h1         1 646       0.053700
     38 HACA         4.4710     0.0460     2.5470 h1         1 646       0.053700
     39 HACB         5.4050     0.8580     1.2840 h1         1 646       0.053700
     40 HAH          7.9550     6.7270    -3.7940 h4         1 646       0.014100
     41 HAI          6.3910     4.8320    -3.9220 ha         1 646       0.150000
     42 HAJ          4.2020     4.3410    -4.8980 ha         1 646       0.156500
     43 HAK          2.5690     5.3860    -1.0710 ha         1 646       0.156500
     44 HAL          3.1460     7.6510    -3.8810 ha         1 646       0.153000
     45 HAM          6.2710    10.5710    -0.2250 h1         1 646       0.049450
     46 HAMA         5.0570    11.5890    -1.0190 h1         1 646       0.049450
     47 HAN          9.0940    12.1760    -1.8970 h1         1 646       0.049450
     48 HANA         8.6350    10.9140    -0.7400 h1         1 646       0.049450
     49 HAO          5.6220    10.5880    -3.1950 h1         1 646       0.095200
     50 HAOA         5.1640     9.3260    -2.0380 h1         1 646       0.095200
     51 HAP          7.9860    10.9320    -3.7100 h1         1 646       0.095200
     52 HAPA         9.2010     9.9130    -2.9180 h1         1 646       0.095200
     53 HNAS         7.1130    12.7420    -0.7120 hn         1 646       0.368800
     54 HNAT         2.1440    -0.7510    -3.0840 hn         1 646       0.457800
     55 ClF          2.8490     1.8940    -5.4300 cl         1 646      -0.052900
     56 ClG          0.8070     3.1990    -0.6020 cl         1 646      -0.052900
@<TRIPOS>BOND
     1     1    19 1   
     2     1    31 1   
     3     1    32 1   
     4     1    33 1   
     5    20     2 1   
     6     2    34 1   
     7     2    35 1   
     8     2    36 1   
     9    29     3 1   
    10     3    37 1   
    11     3    38 1   
    12     3    39 1   
    13     4    30 2   
    14    30     5 2   
    15    55    21 1   
    16    22    56 1   
    17     7     6 ar  
    18     6    15 ar  
    19     6    40 1   
    20     7    23 ar  
    21     7    41 1   
    22    21     8 ar  
    23     8    24 ar  
    24     8    42 1   
    25    22     9 ar  
    26    24     9 ar  
    27     9    43 1   
    28    23    10 ar  
    29    10    25 ar  
    30    10    44 1   
    31    13    11 1   
    32    11    17 1   
    33    11    45 1   
    34    11    46 1   
    35    14    12 1   
    36    12    17 1   
    37    12    47 1   
    38    12    48 1   
    39    28    13 1   
    40    13    49 1   
    41    13    50 1   
    42    28    14 1   
    43    14    51 1   
    44    14    52 1   
    45    15    25 ar  
    46    19    16 2   
    47    16    29 1   
    48    17    53 1   
    49    18    26 1   
    50    18    30 1   
    51    18    54 1   
    52    26    19 1   
    53    26    20 2   
    54    20    29 1   
    55    21    27 ar  
    56    27    22 ar  
    57    24    23 1   
    58    25    28 1   
    59    30    27 1   
@<TRIPOS>SUBSTRUCTURE
     1 646         1 TEMP              0 ****  ****    0 ROOT
