@<TRIPOS>MOLECULE
646
   56    54     1     0     0
SMALL
bcc


@<TRIPOS>ATOM
      1 CAA        -0.4000   -0.7870   -0.1930 c3        1 646     -0.181000
      2 CAB         2.9320    0.7460    0.1950 cx        1 646     -0.168000
      3 CAC         3.9350   -2.6860    0.8380 c1        1 646     -0.064000
      4 OAD         0.2690    1.7200   -3.6760 o         1 646     -0.915000
      5 OAE        -0.0280    2.2070   -1.3590 o         1 646     -0.915000
      6 CAH         7.1010    7.2610   -2.6630 c1        1 646     -0.050000
      7 CAI         6.2250    6.1440   -3.1700 c3        1 646     -0.226000
      8 CAJ         4.1350    4.1330   -3.5050 c2        1 646     -0.238000
      9 CAK         1.0240    5.2880   -1.9790 c1        1 646      0.306000
     10 CAL         4.2830    7.8260   -3.6170 c1        1 646     -0.027000
     11 CAM         3.4540   12.7020   -2.4060 c1        1 646      0.082000
     12 CAN        10.4940   11.4150   -2.8000 c2        1 646     -0.493000
     13 CAO         5.4180   10.0670   -2.6570 cv        1 646      0.087000
     14 CAP         9.2840   10.9630   -2.6460 c1        1 646      0.108000
     15 NAQ         6.5580    8.4570   -2.7670 na        1 646     -0.133000
     16 NAR         1.6990   -1.9400    0.4970 n2        1 646      0.007000
     17 NAS         2.4500   13.3120   -2.3710 n2        1 646     -0.358000
     18 NAT         1.6960    0.5380   -2.0670 n3        1 646     -0.833000
     19 CAU         1.0650   -0.9570   -0.1150 c2        1 646     -0.064000
     20 CAV         3.3930   -0.5720   -0.3750 cx        1 646     -0.160000
     21 CAW         3.1360    3.0940   -3.3510 c2        1 646      0.172000
     22 CAX         1.8140    4.2570   -1.6750 c2        1 646     -0.341000
     23 CAY         4.8960    6.4840   -3.8640 c3        1 646     -0.150000
     24 CAZ         3.8580    5.4370   -3.6530 c2        1 646     -0.016000
     25 CBA         5.1620    8.7680   -3.1210 cv        1 646     -0.261000
     26 CBB         2.0170    0.0400   -0.7970 cx        1 646      0.007000
     27 CBC         2.0520    3.1040   -2.5360 c2        1 646     -0.802000
     28 NBD         6.7070    9.7220   -2.2190 na        1 646     -0.154000
     29 NBE         3.0710   -1.8090    0.3730 n3        1 646     -0.104000
     30 SBF         0.8540    1.8880   -2.4050 s6        1 646      2.842000
     31 HAA        -0.7620   -1.1510   -1.1890 hc        1 646      0.114000
     32 HAAA       -0.6570    0.3000   -0.0920 hc        1 646      0.114000
     33 HAAB       -0.9300   -1.3630    0.6060 hc        1 646      0.114000
     34 HAB         4.2870   -0.6410   -1.0150 h1        1 646      0.162000
     35 HABA        2.5970    0.8230    1.2460 hc        1 646      0.137500
     36 HABB        3.4730    1.6530   -0.1340 hc        1 646      0.137500
     37 HAC         4.9970   -2.4190    0.6280 ha        1 646      0.038000
     38 HACA        6.5540   -1.2440   -1.5290 ha        1 646      0.004833
     39 HACB        6.3820   -1.6530   -1.0170 ha        1 646      0.004833
     40 HAH         6.0290    5.5190   -2.2540 hc        1 646      0.120500
     41 HAI         6.8580    5.5290   -3.8640 hc        1 646      0.120500
     42 HAJ         5.1790    3.7680   -3.5310 ha        1 646      0.154000
     43 HAK         2.8170    5.8160   -3.6600 ha        1 646      0.160000
     44 HAL         5.0950    6.5180   -4.9870 hc        1 646      0.147000
     45 HAM         9.3640    8.4920   -2.2820 ha        1 646      0.004833
     46 HAMA        4.8900   11.0200   -2.5430 h4        1 646      0.235000
     47 HAN        11.3940   10.7790   -2.7440 ha        1 646      0.198500
     48 HANA        1.6170   13.8070   -2.3430 hn        1 646      0.284000
     49 HAO         7.6210   12.6570   -2.7920 ha        1 646      0.004833
     50 HAOA        9.9480    8.8360   -2.2190 ha        1 646      0.004833
     51 HAP         7.5840   10.2370   -2.3570 hn        1 646      0.301000
     52 HAPA        8.1750   13.0300   -2.9150 ha        1 646      0.004833
     53 HNAS       10.7340   12.4730   -3.0000 ha        1 646      0.198500
     54 HNAT        1.9550   -0.0850   -2.8020 hn        1 646      0.254000
     55 CLF         3.4600    1.7230   -4.3210 cl        1 646     -0.002000
     56 CLG         2.6050    4.2860   -0.1600 cl        1 646      0.027000
@<TRIPOS>BOND
     1    1   19 1   
     2    1   31 1   
     3    1   32 1   
     4    1   33 1   
     5    2   20 1   
     6    2   26 1   
     7    2   35 1   
     8    2   36 1   
     9    3   29 1   
    10    3   37 1   
    11    4   30 1   
    12    5   30 1   
    13    6    7 1   
    14    6   15 1   
    15    7   23 1   
    16    7   40 1   
    17    7   41 1   
    18    8   21 1   
    19    8   24 1   
    20    8   42 1   
    21    9   22 1   
    22   10   23 1   
    23   10   25 1   
    24   11   17 1   
    25   12   14 1   
    26   12   47 1   
    27   12   53 1   
    28   13   25 1   
    29   13   28 1   
    30   13   46 1   
    31   15   25 1   
    32   15   28 1   
    33   16   19 1   
    34   16   29 1   
    35   17   48 1   
    36   18   26 1   
    37   18   30 1   
    38   18   54 1   
    39   19   26 1   
    40   20   26 1   
    41   20   29 1   
    42   20   34 1   
    43   21   27 1   
    44   21   55 1   
    45   22   27 1   
    46   22   56 1   
    47   23   24 1   
    48   23   44 1   
    49   24   43 1   
    50   27   30 1   
    51   28   51 1   
    52   38   39 1   
    53   45   50 1   
    54   49   52 1   
@<TRIPOS>SUBSTRUCTURE
     1 646         1 TEMP              0 ****  ****    0 ROOT
