@<TRIPOS>MOLECULE
molecule
   45    48     1     0     0
SMALL
bcc


@<TRIPOS>ATOM
      1 C1           0.0000     0.0000     0.0000 ca         1 647      -0.286300
      2 C3           1.3860     0.0000     0.0000 ca         1 647       0.448200
      3 N5           2.0760     0.0000     1.1210 nb         1 647      -0.715000
      4 C6          -0.6790     0.0040     1.2040 ca         1 647      -0.046000
      5 N8           1.9510     0.0070     3.5960 na         1 647      -0.281100
      6 C10          0.9020     0.0210     4.4770 cc         1 647      -0.089100
      7 C12         -0.2600     0.0140     3.8070 cd         1 647      -0.144400
      8 C13          0.0730     0.0090     2.3810 ca         1 647      -0.213100
      9 C14          1.4790    -0.0000     2.3050 ca         1 647       0.470800
     10 C15         -1.6430     0.0150     4.4060 c3         1 647       0.054100
     11 C18         -2.1510    -1.4000     4.4990 ca         1 647      -0.262600
     12 C19         -2.8530    -1.9590     3.4490 ca         1 647       0.477200
     13 N21         -3.2990    -3.1990     3.5170 nb         1 647      -0.757000
     14 C22         -3.0920    -3.9540     4.5860 ca         1 647       0.699200
     15 C23         -2.3920    -3.4560     5.6790 ca         1 647      -0.322300
     16 C25         -1.9120    -2.1590     5.6380 ca         1 647      -0.048000
     17 N27         -3.5800    -5.2550     4.6140 nu         1 647      -0.920900
     18 C29         -3.3540    -6.0950     5.7920 c3         1 647       0.286100
     19 C32         -3.9790    -7.4490     5.5700 ca         1 647      -0.087300
     20 C33         -3.2410    -8.4640     4.9920 ca         1 647      -0.115500
     21 C35         -3.8130    -9.7060     4.7880 ca         1 647      -0.083000
     22 C37         -5.1240    -9.9320     5.1630 ca         1 647      -0.172300
     23 C38         -5.8620    -8.9160     5.7430 ca         1 647      -0.083000
     24 C40         -5.2880    -7.6770     5.9510 ca         1 647      -0.115500
     25 C42         -5.7490   -11.2860     4.9410 c3         1 647       0.673200
     26 F43         -5.1690   -11.8880     3.8200 f          1 647      -0.222300
     27 F44         -5.5350   -12.0890     6.0660 f          1 647      -0.222300
     28 F45         -7.1250   -11.1360     4.7320 f          1 647      -0.222300
     29 H1          -0.5460     0.0000    -0.9350 ha         1 647       0.138000
     30 H2           1.9150    -0.0030    -0.9460 h4         1 647       0.023100
     31 H3          -1.7610     0.0040     1.2330 ha         1 647       0.134000
     32 H4           2.9180     0.0090     3.8540 hn         1 647       0.304700
     33 H5           0.9980     0.0370     5.5560 h4         1 647       0.168000
     34 H6          -2.3080     0.5970     3.7790 hc         1 647       0.051200
     35 H7          -1.6070     0.4510     5.3970 hc         1 647       0.051200
     36 H8          -3.0410    -1.3710     2.5590 h4         1 647       0.021100
     37 H9          -2.2240    -4.0750     6.5520 ha         1 647       0.134000
     38 H10         -1.3630    -1.7440     6.4740 ha         1 647       0.132000
     39 H11         -4.1120    -5.6070     3.8430 hn         1 647       0.454800
     40 H12         -3.8040    -5.6280     6.6610 h1         1 647       0.048200
     41 H13         -2.2890    -6.2110     5.9550 h1         1 647       0.048200
     42 H14         -2.2130    -8.2870     4.6980 ha         1 647       0.145500
     43 H15         -3.2350   -10.5020     4.3340 ha         1 647       0.150500
     44 H16         -6.8890    -9.0940     6.0390 ha         1 647       0.150500
     45 H17         -5.8660    -6.8810     6.4050 ha         1 647       0.145500
@<TRIPOS>BOND
     1    24    23 ar
     2    24    19 ar
     3    18    17 1
     4    18    19 1
     5    23    22 ar
     6    17    14 1
     7    13    14 ar
     8    13    12 ar
     9    19    20 ar
    10    14    15 ar
    11    12    11 ar
    12    11    16 ar
    13    11    10 1
    14    15    16 ar
    15    28    25 1
    16    10     7 1
    17    22    25 1
    18    22    21 ar
    19    20    21 ar
    20    25    27 1
    21    25    26 1
    22     7     8 1
    23     7     6 2
    24     4     8 ar
    25     4     1 ar
    26     8     9 ar
    27     6     5 1
    28     1     2 ar
    29     9     5 1
    30     9     3 ar
    31     2     3 ar
    32     1    29 1
    33     2    30 1
    34     4    31 1
    35     5    32 1
    36     6    33 1
    37    10    34 1
    38    10    35 1
    39    12    36 1
    40    15    37 1
    41    16    38 1
    42    17    39 1
    43    18    40 1
    44    18    41 1
    45    20    42 1
    46    21    43 1
    47    23    44 1
    48    24    45 1
@<TRIPOS>SUBSTRUCTURE
     1 647         1 TEMP              0 ****  ****    0 ROOT
