@<TRIPOS>MOLECULE
647
   45    48     1     0     0
SMALL
bcc


@<TRIPOS>ATOM
      1 C1           0.0000     0.0000     0.0000 ca         1 647      -0.254300
      2 C3           1.3860     0.0000     0.0000 ca         1 647       0.417200
      3 N5           2.0760     0.0000     1.1210 nb         1 647      -0.581000
      4 C6          -0.6790     0.0040     1.2040 ca         1 647      -0.013000
      5 N8           1.9510     0.0070     3.5960 na         1 647       0.257900
      6 C10          0.9020     0.0210     4.4770 cc         1 647      -0.261100
      7 C12         -0.2600     0.0140     3.8070 cd         1 647      -0.138400
      8 C13          0.0730     0.0090     2.3810 ca         1 647      -0.211100
      9 C14          1.4790    -0.0000     2.3050 ca         1 647       0.233800
     10 C15         -1.6430     0.0150     4.4060 c3         1 647       0.144100
     11 C18         -2.1510    -1.4000     4.4990 ca         1 647      -0.272600
     12 C19         -2.8530    -1.9590     3.4490 ca         1 647       0.460200
     13 N21         -3.2990    -3.1990     3.5170 nb         1 647      -0.647000
     14 C22         -3.0920    -3.9540     4.5860 ca         1 647       0.517200
     15 C23         -2.3920    -3.4560     5.6790 ca         1 647      -0.312300
     16 C25         -1.9120    -2.1590     5.6380 ca         1 647      -0.013000
     17 N27         -3.5800    -5.2550     4.6140 nu         1 647      -0.521900
     18 C29         -3.3540    -6.0950     5.7920 c3         1 647       0.222100
     19 C32         -3.9790    -7.4490     5.5700 ca         1 647      -0.087300
     20 C33         -3.2410    -8.4640     4.9920 ca         1 647      -0.089500
     21 C35         -3.8130    -9.7060     4.7880 ca         1 647      -0.042000
     22 C37         -5.1240    -9.9320     5.1630 ca         1 647      -0.204300
     23 C38         -5.8620    -8.9160     5.7430 ca         1 647      -0.042000
     24 C40         -5.2880    -7.6770     5.9510 ca         1 647      -0.089500
     25 C42         -5.7490   -11.2860     4.9410 c3         1 647       0.640200
     26 F43         -5.1690   -11.8880     3.8200 f          1 647      -0.206967
     27 F44         -5.5350   -12.0890     6.0660 f          1 647      -0.206967
     28 F45         -7.1250   -11.1360     4.7320 f          1 647      -0.206967
     29 H1          -0.5460     0.0000    -0.9350 ha         1 647       0.113000
     30 H2           1.9150    -0.0030    -0.9460 h4         1 647      -0.023900
     31 H3          -1.7610     0.0040     1.2330 ha         1 647       0.106000
     32 H4           2.9180     0.0090     3.8540 hn         1 647       0.118700
     33 H5           0.9980     0.0370     5.5560 h4         1 647       0.142000
     34 H6          -2.3080     0.5970     3.7790 hc         1 647       0.016700
     35 H7          -1.6070     0.4510     5.3970 hc         1 647       0.016700
     36 H8          -3.0410    -1.3710     2.5590 h4         1 647      -0.020900
     37 H9          -2.2240    -4.0750     6.5520 ha         1 647       0.120000
     38 H10         -1.3630    -1.7440     6.4740 ha         1 647       0.103000
     39 H11         -4.1120    -5.6070     3.8430 hn         1 647       0.304800
     40 H12         -3.8040    -5.6280     6.6610 h1         1 647       0.019700
     41 H13         -2.2890    -6.2110     5.9550 h1         1 647       0.019700
     42 H14         -2.2130    -8.2870     4.6980 ha         1 647       0.116500
     43 H15         -3.2350   -10.5020     4.3340 ha         1 647       0.120000
     44 H16         -6.8890    -9.0940     6.0390 ha         1 647       0.120000
     45 H17         -5.8660    -6.8810     6.4050 ha         1 647       0.116500
@<TRIPOS>BOND
     1     1     2 ar  
     2     1     4 ar  
     3     1    29 1   
     4     2     3 ar  
     5     2    30 1   
     6     3     9 ar  
     7     4     8 ar  
     8     4    31 1   
     9     5     6 1   
    10     5     9 1   
    11     5    32 1   
    12     6     7 2   
    13     6    33 1   
    14     7     8 1   
    15     7    10 1   
    16     8     9 ar  
    17    10    11 1   
    18    10    34 1   
    19    10    35 1   
    20    11    12 ar  
    21    11    16 ar  
    22    12    13 ar  
    23    12    36 1   
    24    13    14 ar  
    25    14    15 ar  
    26    14    17 1   
    27    15    16 ar  
    28    15    37 1   
    29    16    38 1   
    30    17    18 1   
    31    17    39 1   
    32    18    19 1   
    33    18    40 1   
    34    18    41 1   
    35    19    20 ar  
    36    19    24 ar  
    37    20    21 ar  
    38    20    42 1   
    39    21    22 ar  
    40    21    43 1   
    41    22    23 ar  
    42    22    25 1   
    43    23    24 ar  
    44    23    44 1   
    45    24    45 1   
    46    25    26 1   
    47    25    27 1   
    48    25    28 1   
@<TRIPOS>SUBSTRUCTURE
     1 647         1 TEMP              0 ****  ****    0 ROOT
