@<TRIPOS>MOLECULE
64A
   36    37     1     0     0
SMALL
bcc


@<TRIPOS>ATOM
      1 C2           0.0000     0.0000     0.0000 c          1 64A       0.634700
      2 C3           1.4150     0.0000     0.0000 cc         1 64A      -0.343400
      3 C4           2.1790    -0.0000    -1.3000 c3         1 64A       0.115100
      4 C5           2.0730     0.0000     1.1790 cd         1 64A      -0.069400
      5 C12          1.3770     1.3970     8.1860 c3         1 64A      -0.042900
      6 C10          1.9400     0.7290     5.9540 c3         1 64A       0.190100
      7 C13          0.2500     1.1370     9.1520 c          1 64A       0.995600
      8 N21         -0.6610     0.0060     1.1750 ns         1 64A      -0.136500
      9 N6           1.3640     0.0010     2.3500 n          1 64A       0.085000
     10 C22          0.0190     0.0070     2.3360 c          1 64A       0.563500
     11 C7           2.0760    -0.0000     3.6290 c3         1 64A      -0.017300
     12 C20          1.6150     1.1840     4.5160 c3         1 64A      -0.055400
     13 C9           1.9830    -0.8100     5.9290 c3         1 64A      -0.063400
     14 C8           1.6830    -1.2360     4.4770 c3         1 64A      -0.045400
     15 O1          -0.6150     0.0010    -1.0510 o          1 64A      -0.711500
     16 O11          0.9200     1.1760     6.8490 os         1 64A      -0.339600
     17 O18          1.7020     3.5990     7.4100 o          1 64A      -0.917050
     18 O17          2.4070     3.2350     9.4730 o          1 64A      -0.917050
     19 O14          0.4500     1.2830    10.4710 o          1 64A      -0.917050
     20 O15         -0.8330     0.7970     8.7390 o          1 64A      -0.917050
     21 O23         -0.5910     0.0140     3.3880 o          1 64A      -0.634500
     22 C16          1.8410     2.8250     8.3270 c          1 64A       0.995600
     23 H1           1.9210    -0.8840    -1.8700 hc         1 64A      -0.001633
     24 H2           3.2420    -0.0010    -1.0940 hc         1 64A      -0.001633
     25 H3           1.9220     0.8850    -1.8700 hc         1 64A      -0.001633
     26 H4           3.1560    -0.0020     1.1980 h4         1 64A       0.128000
     27 H5           2.2000     0.7270     8.4020 h1         1 64A      -0.008300
     28 H6           2.9040     1.1200     6.2560 h1         1 64A       0.014700
     29 H7          -1.6620     0.0090     1.1840 hn         1 64A       0.200500
     30 H8           3.1490     0.0320     3.4790 h1         1 64A       0.032700
     31 H9           2.1720     2.0800     4.2680 hc         1 64A       0.049200
     32 H10          0.5500     1.3480     4.4030 hc         1 64A       0.049200
     33 H11          1.2280    -1.2120     6.5950 hc         1 64A       0.025700
     34 H12          2.9660    -1.1570     6.2200 hc         1 64A       0.025700
     35 H13          0.6290    -1.4550     4.3570 hc         1 64A       0.017700
     36 H14          2.2890    -2.0910     4.2020 hc         1 64A       0.017700
@<TRIPOS>BOND
     1     1     2 1   
     2     1     8 1   
     3     1    15 2   
     4     2     3 1   
     5     2     4 2   
     6     3    23 1   
     7     3    24 1   
     8     3    25 1   
     9     4     9 1   
    10     4    26 1   
    11     5     7 1   
    12     5    16 1   
    13     5    22 1   
    14     5    27 1   
    15     6    12 1   
    16     6    13 1   
    17     6    16 1   
    18     6    28 1   
    19     7    19 1   
    20     7    20 1   
    21     8    10 1   
    22     8    29 1   
    23     9    10 1   
    24     9    11 1   
    25    10    21 2   
    26    11    12 1   
    27    11    14 1   
    28    11    30 1   
    29    12    31 1   
    30    12    32 1   
    31    13    14 1   
    32    13    33 1   
    33    13    34 1   
    34    14    35 1   
    35    14    36 1   
    36    17    22 1   
    37    18    22 1   
@<TRIPOS>SUBSTRUCTURE
     1 64A         1 TEMP              0 ****  ****    0 ROOT
