@<TRIPOS>MOLECULE
molecule
   36    37     1     0     0
SMALL
bcc


@<TRIPOS>ATOM
      1 C2           0.0000     0.0000     0.0000 c          1 64A       0.718700
      2 C3           1.4150     0.0000     0.0000 cc         1 64A      -0.334400
      3 C4           2.1790    -0.0000    -1.3000 c3         1 64A      -0.001900
      4 C5           2.0730     0.0000     1.1790 cd         1 64A       0.062600
      5 C12          1.3770     1.3970     8.1860 c3         1 64A      -0.072900
      6 C10          1.9400     0.7290     5.9540 c3         1 64A       0.166100
      7 C13          0.2500     1.1370     9.1520 c          1 64A       0.907100
      8 N21         -0.6610     0.0060     1.1750 ns         1 64A      -0.565500
      9 N6           1.3640     0.0010     2.3500 n          1 64A      -0.339000
     10 C22          0.0190     0.0070     2.3360 c          1 64A       0.789500
     11 C7           2.0760    -0.0000     3.6290 c3         1 64A       0.083700
     12 C20          1.6150     1.1840     4.5160 c3         1 64A      -0.089400
     13 C9           1.9830    -0.8100     5.9290 c3         1 64A      -0.113400
     14 C8           1.6830    -1.2360     4.4770 c3         1 64A      -0.095400
     15 O1          -0.6150     0.0010    -1.0510 o          1 64A      -0.668500
     16 O11          0.9200     1.1760     6.8490 os         1 64A      -0.365600
     17 O18          1.7020     3.5990     7.4100 o          1 64A      -0.863800
     18 O17          2.4070     3.2350     9.4730 o          1 64A      -0.863800
     19 O14          0.4500     1.2830    10.4710 o          1 64A      -0.863800
     20 O15         -0.8330     0.7970     8.7390 o          1 64A      -0.863800
     21 O23         -0.5910     0.0140     3.3880 o          1 64A      -0.595500
     22 C16          1.8410     2.8250     8.3270 c          1 64A       0.907100
     23 H1           1.9210    -0.8840    -1.8700 hc         1 64A       0.034033
     24 H2           3.2420    -0.0010    -1.0940 hc         1 64A       0.034033
     25 H3           1.9220     0.8850    -1.8700 hc         1 64A       0.034033
     26 H4           3.1560    -0.0020     1.1980 h4         1 64A       0.156000
     27 H5           2.2000     0.7270     8.4020 h1         1 64A       0.012700
     28 H6           2.9040     1.1200     6.2560 h1         1 64A       0.038700
     29 H7          -1.6620     0.0090     1.1840 hn         1 64A       0.355500
     30 H8           3.1490     0.0320     3.4790 h1         1 64A       0.056700
     31 H9           2.1720     2.0800     4.2680 hc         1 64A       0.075700
     32 H10          0.5500     1.3480     4.4030 hc         1 64A       0.075700
     33 H11          1.2280    -1.2120     6.5950 hc         1 64A       0.052700
     34 H12          2.9660    -1.1570     6.2200 hc         1 64A       0.052700
     35 H13          0.6290    -1.4550     4.3570 hc         1 64A       0.042700
     36 H14          2.2890    -2.0910     4.2020 hc         1 64A       0.042700
@<TRIPOS>BOND
     1    17    22 1
     2    21    10 2
     3    22    18 1
     4    22     5 1
     5    12     6 1
     6    12    11 1
     7    10     8 1
     8    10     9 1
     9     6    16 1
    10     6    13 1
    11    11     9 1
    12    11    14 1
    13     8     1 1
    14     9     4 1
    15    16     5 1
    16     5     7 1
    17    13    14 1
    18     1    15 2
    19     1     2 1
    20     4     2 2
    21     2     3 1
    22     7    20 1
    23     7    19 1
    24     3    23 1
    25     3    24 1
    26     3    25 1
    27     4    26 1
    28     5    27 1
    29     6    28 1
    30     8    29 1
    31    11    30 1
    32    12    31 1
    33    12    32 1
    34    13    33 1
    35    13    34 1
    36    14    35 1
    37    14    36 1
@<TRIPOS>SUBSTRUCTURE
     1 64A         1 TEMP              0 ****  ****    0 ROOT
