@<TRIPOS>MOLECULE
64B
   33    34     1     0     0
SMALL
bcc


@<TRIPOS>ATOM
      1 C2           4.2050    -2.5890    -0.0060 cg         1 64B       0.222500
      2 O21          0.0000     0.0000     0.0000 os         1 64B      -0.297900
      3 C4           6.4540    -3.6060    -0.0030 c          1 64B       0.730300
      4 O5           7.6650    -3.4880    -0.0000 o          1 64B      -0.589000
      5 N3           3.0740    -2.6910    -0.0260 n1         1 64B      -0.399800
      6 O6           5.8950    -4.8340    -0.0030 os         1 64B      -0.397900
      7 C7           6.7840    -5.9510    -0.0010 c3         1 64B       0.257700
      8 C8           6.2090    -1.1800    -0.0040 c2         1 64B       0.109200
      9 N9           5.5330    -0.0000     0.0010 n          1 64B       0.191800
     10 C10          6.1910     1.1480     0.0060 c          1 64B       0.602500
     11 C11          7.6930     0.9670     0.0060 c3         1 64B      -0.116300
     12 S12          7.8970    -0.8450    -0.0010 ss         1 64B      -0.156700
     13 O13          5.6470     2.2320     0.0100 o          1 64B      -0.597500
     14 C14          4.1290     0.0000     0.0000 ca         1 64B      -0.238400
     15 C15          3.4350     0.0000     1.2020 ca         1 64B      -0.001000
     16 C16          2.0540     0.0000     1.2000 ca         1 64B      -0.137000
     17 C17          1.3590     0.0000    -0.0010 ca         1 64B       0.224100
     18 C18          2.0520    -0.0000    -1.2030 ca         1 64B      -0.231000
     19 C19          3.4350     0.0050    -1.2040 ca         1 64B       0.184900
     20 F20          4.1100     0.0100    -2.3740 f          1 64B      -0.122900
     21 C22         -0.6490    -0.0000    -1.2730 c3         1 64B       0.242700
     22 H2           7.0880    -6.1700     1.0160 h1         1 64B       0.003700
     23 H3           7.6590    -5.7180    -0.5960 h1         1 64B       0.003700
     24 H4           6.2810    -6.8140    -0.4210 h1         1 64B       0.003700
     25 H6           8.0460     0.6210    -0.9580 h1         1 64B       0.112700
     26 H7           8.1970     1.8750     0.3180 h1         1 64B       0.112700
     27 H8           3.9770    -0.0000     2.1400 ha         1 64B       0.114000
     28 H9           1.5110     0.0000     2.1370 ha         1 64B       0.126000
     29 H10          1.5100    -0.0010    -2.1410 ha         1 64B       0.142000
     30 H11         -1.7230     0.0180    -1.1310 h1         1 64B       0.002700
     31 H12         -0.3450     0.8750    -1.8340 h1         1 64B       0.002700
     32 H13         -0.3720    -0.8940    -1.8190 h1         1 64B       0.002700
     33 C1           5.6300    -2.4510    -0.0040 ce         1 64B      -0.107900
@<TRIPOS>BOND
     1     1     5 3   
     2     1    33 1   
     3     2    17 1   
     4     2    21 1   
     5     3     4 2   
     6     3     6 1   
     7     3    33 1   
     8     6     7 1   
     9     7    22 1   
    10     7    23 1   
    11     7    24 1   
    12     8     9 1   
    13     8    12 1   
    14     8    33 2   
    15     9    10 1   
    16     9    14 1   
    17    10    11 1   
    18    10    13 2   
    19    11    12 1   
    20    11    25 1   
    21    11    26 1   
    22    14    15 ar  
    23    14    19 ar  
    24    15    16 ar  
    25    15    27 1   
    26    16    17 ar  
    27    16    28 1   
    28    17    18 ar  
    29    18    19 ar  
    30    18    29 1   
    31    19    20 1   
    32    21    30 1   
    33    21    31 1   
    34    21    32 1   
@<TRIPOS>SUBSTRUCTURE
     1 64B         1 TEMP              0 ****  ****    0 ROOT
