@<TRIPOS>MOLECULE
molecule
   26    28     1     0     0
SMALL
bcc


@<TRIPOS>ATOM
      1 CAG          0.0000     0.0000     0.0000 cc         1 64C      -0.337300
      2 CAD          1.4710     0.0000     0.0000 ca         1 64C       0.072000
      3 CAC          2.2520     0.0000     1.1410 ca         1 64C      -0.148000
      4 CAB          3.6290    -0.0130     1.0190 ca         1 64C      -0.081000
      5 CAA          4.2260    -0.0270    -0.2340 ca         1 64C      -0.159000
      6 CAF          3.4640    -0.0220    -1.3830 ca         1 64C      -0.043000
      7 CAE          2.0760    -0.0020    -1.2840 ca         1 64C      -0.203600
      8 CAJ          1.1970     0.0310    -2.4620 c          1 64C       0.765200
      9 OAK          1.6100     0.4720    -3.5180 o          1 64C      -0.549500
     10 OAI         -0.0730    -0.4330    -2.3710 os         1 64C      -0.309200
     11 CAH         -0.7040    -0.2110    -1.1930 cd         1 64C       0.153800
     12 NAN         -2.0070    -0.1430    -0.8930 na         1 64C      -0.014600
     13 NAM         -2.1320     0.1010     0.4840 nd         1 64C      -0.503800
     14 CAL         -0.9380     0.1850     1.0160 cc         1 64C       0.399600
     15 CAO         -0.6310     0.4390     2.4690 c3         1 64C      -0.107700
     16 CAP         -0.4750    -0.8970     3.1980 c3         1 64C      -0.093100
     17 H1           1.7900     0.0110     2.1210 ha         1 64C       0.145000
     18 H2           4.2470    -0.0180     1.9080 ha         1 64C       0.134000
     19 H3           5.3070    -0.0380    -0.3110 ha         1 64C       0.137000
     20 H4           3.9410    -0.0330    -2.3550 ha         1 64C       0.151000
     21 H5          -2.7630    -0.2520    -1.5390 hn         1 64C       0.341700
     22 H6           0.2890     1.0040     2.5500 hc         1 64C       0.061700
     23 H7          -1.4420     1.0020     2.9160 hc         1 64C       0.061700
     24 H8           0.2630    -0.7950     3.9840 hc         1 64C       0.042367
     25 H9          -0.1530    -1.6570     2.4960 hc         1 64C       0.042367
     26 H10         -1.4260    -1.1860     3.6310 hc         1 64C       0.042367
@<TRIPOS>BOND
     1     9     8 2   
     2     8    10 1   
     3     8     7 1   
     4    10    11 1   
     5     6     7 ar  
     6     6     5 ar  
     7     7     2 ar  
     8    11    12 1   
     9    11     1 2   
    10    12    13 1   
    11     5     4 ar  
    12     2     1 1   
    13     2     3 ar  
    14     1    14 1   
    15    13    14 2   
    16     4     3 ar  
    17    14    15 1   
    18    15    16 1   
    19     3    17 1   
    20     4    18 1   
    21     5    19 1   
    22     6    20 1   
    23    12    21 1   
    24    15    22 1   
    25    15    23 1   
    26    16    24 1   
    27    16    25 1   
    28    16    26 1   
@<TRIPOS>SUBSTRUCTURE
     1 64C         1 TEMP              0 ****  ****    0 ROOT
