@<TRIPOS>MOLECULE
molecule
   37    38     1     0     0
SMALL
bcc


@<TRIPOS>ATOM
      1 C13          0.0000     0.0000     0.0000 ca         1 64D      -0.017000
      2 C17         -0.0020     0.0000     2.3950 ca         1 64D      -0.017000
      3 C14          1.3820     0.0000     0.0000 ca         1 64D      -0.148000
      4 C16          1.3810    -0.0000     2.3960 ca         1 64D      -0.148000
      5 C10         -0.6920    -0.0010     1.1970 ca         1 64D      -0.309500
      6 C15          2.0730     0.0000     1.1980 ca         1 64D       0.076400
      7 C19         -3.5700    -7.8130     2.2320 c          1 64D       0.996600
      8 C4          -3.2920    -4.5430     3.5330 c3         1 64D      -0.096900
      9 C5          -3.1060    -4.5230     1.0400 c3         1 64D      -0.096900
     10 C2          -4.1780    -5.7910     3.4720 c3         1 64D       0.122000
     11 C3          -3.9920    -5.7700     0.9500 c3         1 64D       0.122000
     12 C6          -3.5070    -3.7060     2.2700 c3         1 64D      -0.074700
     13 C7          -2.6490    -2.4420     2.3450 c3         1 64D       0.228800
     14 N1          -3.9020    -6.5070     2.2180 n          1 64D      -0.530800
     15 N8          -2.9430    -1.5830     1.1950 n7         1 64D      -0.909100
     16 O20         -3.5000    -8.4100     3.2880 o          1 64D      -0.866800
     17 O11         -2.8560     0.5430     2.4450 o          1 64D      -0.645800
     18 O12         -2.8550     0.5430    -0.0540 o          1 64D      -0.645800
     19 S9          -2.4540    -0.0010     1.1960 sy         1 64D       1.423200
     20 Cl1          3.8090     0.0000     1.2000 cl         1 64D      -0.110400
     21 O22         -3.3200    -8.4550     1.0770 o          1 64D      -0.866800
     22 H13         -0.5410    -0.0000    -0.9380 ha         1 64D       0.157500
     23 H14          1.9240     0.0010    -0.9380 ha         1 64D       0.146500
     24 H17         -0.5450    -0.0000     3.3330 ha         1 64D       0.157500
     25 H16          1.9220     0.0000     3.3350 ha         1 64D       0.146500
     26 H41C        -2.2520    -4.8420     3.5940 hc         1 64D       0.033450
     27 H42C        -3.5560    -3.9550     4.4040 hc         1 64D       0.033450
     28 H21C        -5.2200    -5.4970     3.4990 h1         1 64D       0.043200
     29 H22C        -3.9550    -6.4350     4.3140 h1         1 64D       0.043200
     30 H6          -4.5530    -3.4330     2.1950 hc         1 64D       0.051700
     31 H51C        -2.0690    -4.8230     1.1290 hc         1 64D       0.033450
     32 H52C        -3.2390    -3.9210     0.1490 hc         1 64D       0.033450
     33 H31C        -5.0190    -5.4730     0.7750 h1         1 64D       0.043200
     34 H32C        -3.6470    -6.4010     0.1390 h1         1 64D       0.043200
     35 H71C        -2.8720    -1.9070     3.2610 h1         1 64D       0.041200
     36 H72C        -1.6010    -2.7150     2.3330 h1         1 64D       0.041200
     37 H8          -3.4540    -1.9490     0.4160 hn         1 64D       0.463800
@<TRIPOS>BOND
     1     1     3 ar  
     2     1     5 ar  
     3     2     4 ar  
     4     2     5 ar  
     5     3     6 ar  
     6     4     6 ar  
     7     5    19 1   
     8     6    20 1   
     9     7    14 1   
    10     7    16 1   
    11     7    21 1   
    12     8    10 1   
    13     8    12 1   
    14     9    11 1   
    15     9    12 1   
    16    10    14 1   
    17    11    14 1   
    18    12    13 1   
    19    13    15 1   
    20    15    19 1   
    21    17    19 2   
    22    18    19 2   
    23     1    22 1   
    24     3    23 1   
    25     2    24 1   
    26     4    25 1   
    27     8    26 1   
    28     8    27 1   
    29    10    28 1   
    30    10    29 1   
    31    12    30 1   
    32     9    31 1   
    33     9    32 1   
    34    11    33 1   
    35    11    34 1   
    36    13    35 1   
    37    13    36 1   
    38    15    37 1   
@<TRIPOS>SUBSTRUCTURE
     1 64D         1 TEMP              0 ****  ****    0 ROOT
