@<TRIPOS>MOLECULE
molecule
   29    31     1     0     0
SMALL
bcc


@<TRIPOS>ATOM
      1 CAG          0.0000     0.0000     0.0000 cc         1 64E      -0.336300
      2 CAD          1.4720     0.0000     0.0000 ca         1 64E       0.073000
      3 CAC          2.2540     0.0000     1.1400 ca         1 64E      -0.149000
      4 CAB          3.6300    -0.0140     1.0170 ca         1 64E      -0.082000
      5 CAA          4.2270    -0.0270    -0.2350 ca         1 64E      -0.159000
      6 CAF          3.4640    -0.0220    -1.3840 ca         1 64E      -0.043000
      7 CAE          2.0750    -0.0020    -1.2840 ca         1 64E      -0.204600
      8 CAJ          1.1960     0.0300    -2.4630 c          1 64E       0.766200
      9 OAK          1.6090     0.4720    -3.5180 o          1 64E      -0.549500
     10 OAI         -0.0740    -0.4330    -2.3690 os         1 64E      -0.309200
     11 CAH         -0.7040    -0.2100    -1.1920 cd         1 64E       0.153800
     12 NAN         -2.0060    -0.1420    -0.8920 na         1 64E      -0.014600
     13 NAM         -2.1310     0.1030     0.4840 nd         1 64E      -0.504800
     14 CAL         -0.9370     0.1860     1.0160 cc         1 64E       0.398600
     15 CAO         -0.6300     0.4380     2.4700 c3         1 64E      -0.104700
     16 CAP         -0.4750    -0.8990     3.1970 c3         1 64E      -0.085400
     17 CAQ         -0.1620    -0.6440     4.6740 c3         1 64E      -0.094100
     18 H1           1.7920     0.0100     2.1200 ha         1 64E       0.146000
     19 H2           4.2490    -0.0180     1.9070 ha         1 64E       0.134000
     20 H3           5.3080    -0.0370    -0.3120 ha         1 64E       0.137000
     21 H4           3.9410    -0.0320    -2.3560 ha         1 64E       0.151000
     22 H5          -2.7630    -0.2490    -1.5380 hn         1 64E       0.341700
     23 H6          -1.4400     1.0010     2.9180 hc         1 64E       0.062700
     24 H7           0.2910     1.0030     2.5520 hc         1 64E       0.062700
     25 H8          -1.3960    -1.4640     3.1150 hc         1 64E       0.051200
     26 H9           0.3350    -1.4620     2.7490 hc         1 64E       0.051200
     27 H10          0.5500     0.1680     4.7570 hc         1 64E       0.035700
     28 H11          0.2580    -1.5400     5.1140 hc         1 64E       0.035700
     29 H12         -1.0740    -0.3790     5.1950 hc         1 64E       0.035700
@<TRIPOS>BOND
     1     5     4 ar
     2     5     6 ar
     3     4     3 ar
     4     6     7 ar
     5     3     2 ar
     6     7     2 ar
     7     7     8 1
     8     2     1 1
     9     9     8 2
    10     8    10 1
    11     1    14 1
    12     1    11 2
    13    15    14 1
    14    15    16 1
    15    10    11 1
    16    14    13 2
    17    11    12 1
    18    17    16 1
    19    13    12 1
    20     3    18 1
    21     4    19 1
    22     5    20 1
    23     6    21 1
    24    12    22 1
    25    15    23 1
    26    15    24 1
    27    16    25 1
    28    16    26 1
    29    17    27 1
    30    17    28 1
    31    17    29 1
@<TRIPOS>SUBSTRUCTURE
     1 64E         1 TEMP              0 ****  ****    0 ROOT
