@<TRIPOS>MOLECULE
molecule
   32    34     1     0     0
SMALL
bcc


@<TRIPOS>ATOM
      1 CAG          0.0000     0.0000     0.0000 cc         1 64F      -0.337300
      2 CAD          1.4720     0.0000     0.0000 ca         1 64F       0.072000
      3 CAC          2.2530     0.0000     1.1410 ca         1 64F      -0.149000
      4 CAB          3.6290    -0.0120     1.0190 ca         1 64F      -0.081000
      5 CAA          4.2260    -0.0260    -0.2330 ca         1 64F      -0.159000
      6 CAF          3.4640    -0.0220    -1.3820 ca         1 64F      -0.043000
      7 CAE          2.0770    -0.0020    -1.2840 ca         1 64F      -0.203600
      8 CAJ          1.1980     0.0300    -2.4630 c          1 64F       0.765200
      9 OAK          1.6100     0.4710    -3.5190 o          1 64F      -0.549500
     10 OAI         -0.0730    -0.4330    -2.3700 os         1 64F      -0.309200
     11 CAH         -0.7030    -0.2110    -1.1940 cd         1 64F       0.153800
     12 NAN         -2.0060    -0.1420    -0.8940 na         1 64F      -0.014600
     13 NAM         -2.1310     0.1020     0.4820 nd         1 64F      -0.504800
     14 CAL         -0.9380     0.1850     1.0150 cc         1 64F       0.399600
     15 CAO         -0.6320     0.4380     2.4690 c3         1 64F      -0.105700
     16 CAP         -0.4770    -0.8980     3.1960 c3         1 64F      -0.083400
     17 CAQ         -0.1660    -0.6420     4.6720 c3         1 64F      -0.085400
     18 CAR         -0.0120    -1.9790     5.4000 c3         1 64F      -0.091100
     19 H1           1.7900     0.0110     2.1200 ha         1 64F       0.146000
     20 H2           4.2460    -0.0160     1.9090 ha         1 64F       0.134000
     21 H3           5.3070    -0.0360    -0.3090 ha         1 64F       0.137000
     22 H4           3.9430    -0.0330    -2.3540 ha         1 64F       0.151000
     23 H5          -2.7620    -0.2490    -1.5410 hn         1 64F       0.341700
     24 H6           0.2890     1.0030     2.5510 hc         1 64F       0.062700
     25 H7          -1.4420     1.0010     2.9160 hc         1 64F       0.062700
     26 H8           0.3330    -1.4610     2.7490 hc         1 64F       0.052200
     27 H9          -1.3980    -1.4630     3.1140 hc         1 64F       0.052200
     28 H10          0.7540    -0.0770     4.7550 hc         1 64F       0.040700
     29 H11         -0.9770    -0.0800     5.1200 hc         1 64F       0.040700
     30 H12          0.2350    -1.7980     6.4390 hc         1 64F       0.035033
     31 H13         -0.9410    -2.5330     5.3410 hc         1 64F       0.035033
     32 H14          0.7810    -2.5530     4.9360 hc         1 64F       0.035033
@<TRIPOS>BOND
     1     5     4 ar
     2     5     6 ar
     3     4     3 ar
     4     6     7 ar
     5     3     2 ar
     6     7     2 ar
     7     7     8 1
     8     2     1 1
     9     9     8 2
    10     8    10 1
    11     1    14 1
    12     1    11 2
    13    15    14 1
    14    15    16 1
    15    10    11 1
    16    14    13 2
    17    11    12 1
    18    17    16 1
    19    17    18 1
    20    13    12 1
    21     3    19 1
    22     4    20 1
    23     5    21 1
    24     6    22 1
    25    12    23 1
    26    15    24 1
    27    15    25 1
    28    16    26 1
    29    16    27 1
    30    17    28 1
    31    17    29 1
    32    18    30 1
    33    18    31 1
    34    18    32 1
@<TRIPOS>SUBSTRUCTURE
     1 64F         1 TEMP              0 ****  ****    0 ROOT
