@<TRIPOS>MOLECULE
64I
   24    25     1     0     0
SMALL
bcc


@<TRIPOS>ATOM
      1 F15         0.0460    0.0620   -0.0040 f         1 64I     -0.102900
      2 C8          1.3950    0.0690   -0.0250 ca        1 64I      0.175400
      3 C10         2.0960    0.0810    1.2060 ca        1 64I      0.036400
      4 F14         1.4230    0.0870    2.3810 f         1 64I     -0.107900
      5 C12         3.5070    0.0880    1.2150 ca        1 64I      0.125100
      6 O13         4.2400    0.1000    2.3680 oh        1 64I     -0.459100
      7 C11         4.2240    0.0820   -0.0020 ca        1 64I      0.036400
      8 F17         5.5730    0.0870   -0.0030 f         1 64I     -0.107900
      9 C9          3.5100    0.0690   -1.2280 ca        1 64I      0.175400
     10 F16         4.2110    0.0630   -2.3810 f         1 64I     -0.102900
     11 C7          2.0990    0.0630   -1.2470 cp        1 64I     -0.112000
     12 C2          1.3750    0.0510   -2.5190 cp        1 64I     -0.112000
     13 C4          1.0290   -1.1720   -3.1330 ca        1 64I      0.175400
     14 F22         1.3570   -2.3490   -2.5620 f         1 64I     -0.102900
     15 C1          1.0140    1.2620   -3.1480 ca        1 64I      0.175400
     16 F18         1.3300    2.4470   -2.5850 f         1 64I     -0.102900
     17 C3          0.3130    1.2640   -4.3820 ca        1 64I      0.036400
     18 F19        -0.0240    2.4310   -4.9680 f         1 64I     -0.107900
     19 C5         -0.0270    0.0330   -4.9850 ca        1 64I      0.125100
     20 O20        -0.7020    0.0890   -6.1730 oh        1 64I     -0.459100
     21 C6          0.3290   -1.1820   -4.3650 ca        1 64I      0.036400
     22 F21        -0.0040   -2.3540   -4.9560 f         1 64I     -0.107900
     23 H1          3.6240    0.1050    3.1210 ho        1 64I      0.444000
     24 H2         -0.8670   -0.8220   -6.4720 ho        1 64I      0.444000
@<TRIPOS>BOND
     1    1    2 1   
     2    2    3 ar  
     3    2   11 ar  
     4    3    4 1   
     5    3    5 ar  
     6    5    6 1   
     7    5    7 ar  
     8    6   23 1   
     9    7    8 1   
    10    7    9 ar  
    11    9   10 1   
    12    9   11 ar  
    13   11   12 1   
    14   12   13 ar  
    15   12   15 ar  
    16   13   14 1   
    17   13   21 ar  
    18   15   16 1   
    19   15   17 ar  
    20   17   18 1   
    21   17   19 ar  
    22   19   20 1   
    23   19   21 ar  
    24   20   24 1   
    25   21   22 1   
@<TRIPOS>SUBSTRUCTURE
     1 64I         1 TEMP              0 ****  ****    0 ROOT
