@<TRIPOS>MOLECULE
molecule
   24    25     1     0     0
SMALL
bcc


@<TRIPOS>ATOM
      1 F15          0.0000     0.0000     0.0000 f          1 64I      -0.104650
      2 C8           1.3510     0.0000     0.0000 ca         1 64I       0.147900
      3 C10          2.0430     0.0000     1.1980 ca         1 64I       0.084400
      4 F14          1.3670    -0.0010     2.3680 f          1 64I      -0.103400
      5 C12          3.4320     0.0010     1.1990 ca         1 64I       0.090100
      6 O13          4.1090    -0.0000     2.3780 oh         1 64I      -0.485100
      7 C11          4.1310     0.0010    -0.0020 ca         1 64I       0.084400
      8 F17          5.4810     0.0010     0.0040 f          1 64I      -0.103400
      9 C9           3.4450     0.0010    -1.2030 ca         1 64I       0.147900
     10 F16          4.1260     0.0020    -2.3700 f          1 64I      -0.104650
     11 C7           2.0500    -0.0060    -1.2070 cp         1 64I      -0.090000
     12 C2           1.3110    -0.0120    -2.4940 cp         1 64I      -0.090000
     13 C4           0.9580    -1.2210    -3.0920 ca         1 64I       0.147900
     14 F22          1.2890    -2.3900    -2.5000 f          1 64I      -0.104650
     15 C1           0.9630     1.1930    -3.1070 ca         1 64I       0.147900
     16 F18          1.2990     2.3670    -2.5280 f          1 64I      -0.104650
     17 C3           0.2730     1.1840    -4.3050 ca         1 64I       0.084400
     18 F19         -0.0650     2.3500    -4.8990 f          1 64I      -0.103400
     19 C5          -0.0720    -0.0230    -4.9000 ca         1 64I       0.090100
     20 O20         -0.7490    -0.0290    -6.0800 oh         1 64I      -0.485100
     21 C6           0.2690    -1.2240    -4.2910 ca         1 64I       0.084400
     22 F21         -0.0730    -2.3950    -4.8710 f          1 64I      -0.103400
     23 H1           4.2660     0.8890     2.6510 ho         1 64I       0.436000
     24 H2          -0.1340    -0.0340    -6.7950 ho         1 64I       0.436000
@<TRIPOS>BOND
     1     6     5 1
     2     4     3 1
     3     5     3 ar
     4     5     7 ar
     5     3     2 ar
     6     8     7 1
     7     7     9 ar
     8    14    13 1
     9     2     1 1
    10     2    11 ar
    11     9    11 ar
    12     9    10 1
    13    11    12 1
    14    13    12 ar
    15    13    21 ar
    16    22    21 1
    17    12    15 ar
    18    21    19 ar
    19    15    16 1
    20    15    17 ar
    21    19    17 ar
    22    19    20 1
    23    17    18 1
    24     6    23 1
    25    20    24 1
@<TRIPOS>SUBSTRUCTURE
     1 64I         1 TEMP              0 ****  ****    0 ROOT
