@<TRIPOS>MOLECULE
64J
   35    37     1     0     0
SMALL
bcc


@<TRIPOS>ATOM
      1 C4           0.0000     0.0000     0.0000 ca         1 64J       0.572600
      2 C5           1.3970     0.0000     0.0000 ca         1 64J      -0.383400
      3 C6           2.0560     0.0000     1.2560 ca         1 64J       0.584200
      4 N1           1.3300    -0.0010     2.3630 nb         1 64J      -0.715000
      5 N3          -0.6520    -0.0020     1.1700 nb         1 64J      -0.640000
      6 FAD         -5.6770     1.7840    -7.2950 f          1 64J      -0.194967
      7 CAX         -4.4210     1.8430    -6.6830 c3         1 64J       0.757700
      8 FAE         -3.5550     2.6110    -7.4680 f          1 64J      -0.194967
      9 FAF         -4.5460     2.4280    -5.4180 f          1 64J      -0.194967
     10 CAQ         -2.6710     0.4000    -5.9670 ca         1 64J       0.177100
     11 CAH         -2.1020    -0.8540    -5.8040 ca         1 64J      -0.177500
     12 CAJ         -0.8590    -0.9770    -5.2150 ca         1 64J       0.012500
     13 CAG         -1.9890     1.5330    -5.5430 ca         1 64J      -0.177500
     14 CAI         -0.7470     1.4110    -4.9530 ca         1 64J       0.012500
     15 CAR         -0.1780     0.1550    -4.7850 ca         1 64J      -0.026100
     16 CAU          1.0320     0.0000    -2.3120 cc         1 64J       0.116200
     17 SAO         -0.5940    -0.0060    -1.6550 ss         1 64J      -0.283900
     18 C2           0.0050    -0.0020     2.3140 ca         1 64J       0.766900
     19 NAB         -0.7120    -0.0030     3.5010 nv         1 64J      -0.636500
     20 NAC          3.4390    -0.0010     1.3220 nv         1 64J      -0.532500
     21 CAT          1.9430     0.0010    -1.3460 cd         1 64J      -0.020400
     22 CAA          3.4230     0.0070    -1.6240 c3         1 64J       0.055100
     23 H1          -2.6320    -1.7370    -6.1390 ha         1 64J       0.130500
     24 H2          -0.4150    -1.9570    -5.0860 ha         1 64J       0.122500
     25 H3          -2.4330     2.5120    -5.6740 ha         1 64J       0.130500
     26 H4          -0.2160     2.2950    -4.6210 ha         1 64J       0.122500
     27 H5          -1.0560     0.8580     3.8780 hn         1 64J       0.280800
     28 H6          -0.8830    -0.8640     3.9820 hn         1 64J       0.280800
     29 H7           3.8990     0.2340     2.1800 hn         1 64J       0.283800
     30 H8           3.9780    -0.2780     0.5260 hn         1 64J       0.283800
     31 H9           3.8810     0.8550    -1.1290 hc         1 64J       0.020033
     32 H10          3.8640    -0.9100    -1.2520 hc         1 64J       0.020033
     33 H11          3.5900     0.0790    -2.6920 hc         1 64J       0.020033
     34 SAN          1.4070    -0.0010    -4.0330 ss         1 64J      -0.256500
     35 OAM         -3.8940     0.5220    -6.5470 os         1 64J      -0.314900
@<TRIPOS>BOND
     1     1     2 ar  
     2     1     5 ar  
     3     1    17 1   
     4     2     3 ar  
     5     2    21 1   
     6     3     4 ar  
     7     3    20 1   
     8     4    18 ar  
     9     5    18 ar  
    10     6     7 1   
    11     7     8 1   
    12     7     9 1   
    13     7    35 1   
    14    10    11 ar  
    15    10    13 ar  
    16    10    35 1   
    17    11    12 ar  
    18    11    23 1   
    19    12    15 ar  
    20    12    24 1   
    21    13    14 ar  
    22    13    25 1   
    23    14    15 ar  
    24    14    26 1   
    25    15    34 1   
    26    16    17 1   
    27    16    21 2   
    28    16    34 1   
    29    18    19 1   
    30    19    27 1   
    31    19    28 1   
    32    20    29 1   
    33    20    30 1   
    34    21    22 1   
    35    22    31 1   
    36    22    32 1   
    37    22    33 1   
@<TRIPOS>SUBSTRUCTURE
     1 64J         1 TEMP              0 ****  ****    0 ROOT
