@<TRIPOS>MOLECULE
molecule
   35    37     1     0     0
SMALL
bcc


@<TRIPOS>ATOM
      1 C4           0.0000     0.0000     0.0000 ca         1 64J       0.554600
      2 C5           1.3970     0.0000     0.0000 ca         1 64J      -0.382400
      3 C6           2.0560     0.0000     1.2560 ca         1 64J       0.777200
      4 N1           1.3300    -0.0010     2.3630 nb         1 64J      -0.829000
      5 N3          -0.6520    -0.0020     1.1700 nb         1 64J      -0.765000
      6 FAD         -5.6770     1.7840    -7.2950 f          1 64J      -0.201967
      7 CAX         -4.4210     1.8430    -6.6830 c3         1 64J       0.795700
      8 FAE         -3.5550     2.6110    -7.4680 f          1 64J      -0.201967
      9 FAF         -4.5460     2.4280    -5.4180 f          1 64J      -0.201967
     10 CAQ         -2.6710     0.4000    -5.9670 ca         1 64J       0.158100
     11 CAH         -2.1020    -0.8540    -5.8040 ca         1 64J      -0.184500
     12 CAJ         -0.8590    -0.9770    -5.2150 ca         1 64J      -0.035500
     13 CAG         -1.9890     1.5330    -5.5430 ca         1 64J      -0.184500
     14 CAI         -0.7470     1.4110    -4.9530 ca         1 64J      -0.035500
     15 CAR         -0.1780     0.1550    -4.7850 ca         1 64J      -0.064100
     16 CAU          1.0320     0.0000    -2.3120 cc         1 64J       0.030200
     17 SAO         -0.5940    -0.0060    -1.6550 ss         1 64J      -0.125900
     18 C2           0.0050    -0.0020     2.3140 ca         1 64J       0.981900
     19 NAB         -0.7120    -0.0030     3.5010 nv         1 64J      -1.057500
     20 NAC          3.4390    -0.0010     1.3220 nv         1 64J      -1.005500
     21 CAT          1.9430     0.0010    -1.3460 cd         1 64J      -0.041400
     22 CAA          3.4230     0.0070    -1.6240 c3         1 64J      -0.043900
     23 H1          -2.6320    -1.7370    -6.1390 ha         1 64J       0.155500
     24 H2          -0.4150    -1.9570    -5.0860 ha         1 64J       0.154500
     25 H3          -2.4330     2.5120    -5.6740 ha         1 64J       0.155500
     26 H4          -0.2160     2.2950    -4.6210 ha         1 64J       0.154500
     27 H5          -1.0560     0.8580     3.8780 hn         1 64J       0.445800
     28 H6          -0.8830    -0.8640     3.9820 hn         1 64J       0.445800
     29 H7           3.8990     0.2340     2.1800 hn         1 64J       0.446800
     30 H8           3.9780    -0.2780     0.5260 hn         1 64J       0.446800
     31 H9           3.8810     0.8550    -1.1290 hc         1 64J       0.050367
     32 H10          3.8640    -0.9100    -1.2520 hc         1 64J       0.050367
     33 H11          3.5900     0.0790    -2.6920 hc         1 64J       0.050367
     34 SAN          1.4070    -0.0010    -4.0330 ss         1 64J      -0.154500
     35 OAM         -3.8940     0.5220    -6.5470 os         1 64J      -0.339900
@<TRIPOS>BOND
     1    22    21 1   
     2    14    13 ar  
     3    14    15 ar  
     4    34    15 1   
     5    34    16 1   
     6    13    10 ar  
     7    15    12 ar  
     8    10    35 1   
     9    10    11 ar  
    10    12    11 ar  
    11    35     7 1   
    12    21    16 2   
    13    21     2 1   
    14    16    17 1   
    15    20     3 1   
    16     7     8 1   
    17     7     6 1   
    18     7     9 1   
    19     2     3 ar  
    20     2     1 ar  
    21     3     4 ar  
    22    17     1 1   
    23     1     5 ar  
    24     4    18 ar  
    25     5    18 ar  
    26    18    19 1   
    27    11    23 1   
    28    12    24 1   
    29    13    25 1   
    30    14    26 1   
    31    19    27 1   
    32    19    28 1   
    33    20    29 1   
    34    20    30 1   
    35    22    31 1   
    36    22    32 1   
    37    22    33 1   
@<TRIPOS>SUBSTRUCTURE
     1 64J         1 TEMP              0 ****  ****    0 ROOT
