@<TRIPOS>MOLECULE
molecule
   42    43     1     0     0
SMALL
bcc


@<TRIPOS>ATOM
      1 C1           0.0000     0.0000     0.0000 c          1 64L       0.889600
      2 C3           2.0090     0.0060    -1.4200 c          1 64L       0.642100
      3 C4           3.8020    -0.0840    -2.9840 ca         1 64L       0.091600
      4 C5           3.0960     0.5220    -4.0150 ca         1 64L      -0.119500
      5 C6           3.5590     0.4320    -5.3140 ca         1 64L      -0.009900
      6 C7           4.7270    -0.2650    -5.5890 ca         1 64L       0.092100
      7 C8           6.0310     0.6100    -7.3110 ca         1 64L       0.125100
      8 C9           6.4090     1.6450    -6.4670 ca         1 64L      -0.172000
      9 C10          7.2720     2.6230    -6.9180 ca         1 64L      -0.167000
     10 C11          7.7610     2.5730    -8.2150 ca         1 64L       0.086100
     11 C13          6.5240     0.5570    -8.6070 ca         1 64L      -0.123000
     12 C18          4.9750    -0.7770    -3.2580 ca         1 64L      -0.119500
     13 C17          5.4330    -0.8710    -4.5580 ca         1 64L      -0.009900
     14 O4           5.1820    -0.3540    -6.8670 os         1 64L      -0.231200
     15 C12          7.3830     1.5400    -9.0600 ca         1 64L      -0.070300
     16 C16          8.6930     0.1850   -10.6710 c3         1 64L      -0.085600
     17 C15          6.7450     1.5400   -11.4560 c3         1 64L      -0.085600
     18 O5           8.6110     3.5380    -8.6590 oh         1 64L      -0.510100
     19 Br1          2.5980     1.2580    -6.7180 br         1 64L      -0.082100
     20 N            3.3340     0.0070    -1.6670 ns         1 64L      -0.504100
     21 O3           1.2210     0.0110    -2.3420 o          1 64L      -0.521100
     22 C2           1.5070     0.0000     0.0000 c3         1 64L      -0.257400
     23 O2          -0.6720     0.0000     1.1630 o          1 64L      -0.821300
     24 O1          -0.6050     0.0050    -1.0460 o          1 64L      -0.821300
     25 H1           2.1830     1.0640    -3.8010 ha         1 64L       0.175000
     26 H2           6.0260     1.6850    -5.4550 ha         1 64L       0.149000
     27 H3           7.5670     3.4300    -6.2580 ha         1 64L       0.131000
     28 H4           6.2280    -0.2500    -9.2660 ha         1 64L       0.149000
     29 H5           8.5690     2.3310   -10.6400 hc         1 64L       0.068700
     30 H6           5.5250    -1.2500    -2.4530 ha         1 64L       0.175000
     31 H7           8.0010    -0.6460   -10.7260 hc         1 64L       0.034367
     32 H8           9.3790     0.0300    -9.8470 hc         1 64L       0.034367
     33 H9           9.2510     0.2530   -11.5980 hc         1 64L       0.034367
     34 H10          6.0610     2.3270   -11.1630 hc         1 64L       0.034367
     35 H11          6.2480     0.5810   -11.3730 hc         1 64L       0.034367
     36 H12          7.0590     1.6960   -12.4810 hc         1 64L       0.034367
     37 H13          9.1410     3.8440    -7.9430 ho         1 64L       0.414000
     38 H14          3.9830     0.0830    -0.9090 hn         1 64L       0.316500
     39 H15          1.8680     0.8820     0.5140 hc         1 64L       0.051700
     40 H16          1.8680    -0.8870     0.5070 hc         1 64L       0.051700
     41 Br2          7.0240    -1.8210    -4.9320 br         1 64L      -0.082100
     42 C14          7.9130     1.4860   -10.4690 c3         1 64L      -0.024400
@<TRIPOS>BOND
     1    16    42 1
     2    42    17 1
     3    42    15 1
     4    18    10 1
     5    15    10 ar
     6    15    11 ar
     7    10     9 ar
     8    11     7 ar
     9    41    13 1
    10     9     8 ar
    11     7     8 ar
    12     7    14 1
    13    14     6 1
    14    13     6 ar
    15    13    12 ar
    16     6     5 ar
    17    12     3 ar
    18     5    19 1
    19     5     4 ar
    20     3     4 ar
    21     3    20 1
    22    22     2 1
    23    22     1 1
    24    20     2 1
    25     2    21 2
    26     1    24 1
    27     1    23 1
    28     4    25 1
    29     8    26 1
    30     9    27 1
    31    11    28 1
    32    42    29 1
    33    12    30 1
    34    16    31 1
    35    16    32 1
    36    16    33 1
    37    17    34 1
    38    17    35 1
    39    17    36 1
    40    18    37 1
    41    20    38 1
    42    22    39 1
    43    22    40 1
@<TRIPOS>SUBSTRUCTURE
     1 64L         1 TEMP              0 ****  ****    0 ROOT
