@<TRIPOS>MOLECULE
64M
   49    52     1     0     0
SMALL
bcc


@<TRIPOS>ATOM
      1 C1           0.0000     0.0000     0.0000 ca         1 64M       0.001800
      2 C2           1.3910     0.0000     0.0000 ca         1 64M       0.321200
      3 N4           2.0780     0.0000     1.1230 nb         1 64M      -0.539000
      4 C5          -0.6790     0.0040     1.2080 ca         1 64M      -0.070000
      5 N7           1.9540    -0.0010     3.5980 na         1 64M       0.258900
      6 C9           0.9070    -0.0010     4.4800 cc         1 64M      -0.251100
      7 C11         -0.2560     0.0090     3.8100 cd         1 64M      -0.150400
      8 C12          0.0750     0.0050     2.3840 ca         1 64M      -0.168100
      9 C13          1.4810    -0.0000     2.3060 ca         1 64M       0.198800
     10 O14         -0.6870    -0.0010    -1.1740 os         1 64M      -0.303900
     11 C15         -1.6380     0.0130     4.4110 c3         1 64M       0.145100
     12 C18         -2.1550    -1.4010     4.4880 ca         1 64M      -0.272600
     13 C19         -1.9220    -2.1690     5.6110 ca         1 64M       0.457200
     14 N21         -2.3700    -3.4070     5.6890 nb         1 64M      -0.649000
     15 C22         -3.0570    -3.9610     4.7030 ca         1 64M       0.516200
     16 C23         -3.3290    -3.2450     3.5400 ca         1 64M      -0.309300
     17 C25         -2.8760    -1.9430     3.4310 ca         1 64M      -0.011000
     18 C27          0.0850    -0.0070    -2.3770 c3         1 64M       0.242700
     19 N31         -3.5100    -5.2690     4.8280 nu         1 64M      -0.522900
     20 C33         -4.2700    -5.8880     3.7390 c3         1 64M       0.222100
     21 C36         -4.6400    -7.2980     4.1230 ca         1 64M      -0.086300
     22 C37         -5.8290    -7.5450     4.7840 ca         1 64M      -0.089500
     23 C39         -6.1680    -8.8380     5.1360 ca         1 64M      -0.042000
     24 C41         -5.3180    -9.8840     4.8270 ca         1 64M      -0.205300
     25 C42         -4.1290    -9.6370     4.1660 ca         1 64M      -0.042000
     26 C44         -3.7930    -8.3440     3.8100 ca         1 64M      -0.089500
     27 C46         -5.6870   -11.2930     5.2110 c3         1 64M       0.640200
     28 F47         -6.4140   -11.8850     4.1720 f          1 64M      -0.207300
     29 F48         -4.5240   -12.0330     5.4470 f          1 64M      -0.207300
     30 F49         -6.4680   -11.2710     6.3720 f          1 64M      -0.207300
     31 H1           1.9210    -0.0030    -0.9450 h4         1 64M      -0.007900
     32 H2          -1.7620     0.0050     1.2390 ha         1 64M       0.119000
     33 H3           2.9210    -0.0080     3.8560 hn         1 64M       0.118700
     34 H4           1.0030    -0.0070     5.5590 h4         1 64M       0.143000
     35 H5          -2.3000     0.6060     3.7910 hc         1 64M       0.016700
     36 H6          -1.5990     0.4380     5.4070 hc         1 64M       0.016700
     37 H7          -1.3630    -1.7490     6.4390 h4         1 64M      -0.024900
     38 H8          -3.8920    -3.6990     2.7350 ha         1 64M       0.121000
     39 H9          -3.0720    -1.3610     2.5380 ha         1 64M       0.109000
     40 H10         -0.5800    -0.0090    -3.2320 h1         1 64M      -0.002633
     41 H11          0.7110     0.8770    -2.4090 h1         1 64M      -0.002633
     42 H12          0.7080    -0.8920    -2.4020 h1         1 64M      -0.002633
     43 H13         -3.2860    -5.8000     5.6460 hn         1 64M       0.303800
     44 H14         -3.6650    -5.9050     2.8400 h1         1 64M       0.020200
     45 H15         -5.1710    -5.3150     3.5570 h1         1 64M       0.020200
     46 H16         -6.4950    -6.7250     5.0250 ha         1 64M       0.116500
     47 H17         -7.0990    -9.0320     5.6540 ha         1 64M       0.120000
     48 H18         -3.4640   -10.4570     3.9220 ha         1 64M       0.120000
     49 H19         -2.8620    -8.1500     3.2910 ha         1 64M       0.116500
@<TRIPOS>BOND
     1     1     2 ar  
     2     1     4 ar  
     3     1    10 1   
     4     2     3 ar  
     5     2    31 1   
     6     3     9 ar  
     7     4     8 ar  
     8     4    32 1   
     9     5     6 1   
    10     5     9 1   
    11     5    33 1   
    12     6     7 2   
    13     6    34 1   
    14     7     8 1   
    15     7    11 1   
    16     8     9 ar  
    17    10    18 1   
    18    11    12 1   
    19    11    35 1   
    20    11    36 1   
    21    12    13 ar  
    22    12    17 ar  
    23    13    14 ar  
    24    13    37 1   
    25    14    15 ar  
    26    15    16 ar  
    27    15    19 1   
    28    16    17 ar  
    29    16    38 1   
    30    17    39 1   
    31    18    40 1   
    32    18    41 1   
    33    18    42 1   
    34    19    20 1   
    35    19    43 1   
    36    20    21 1   
    37    20    44 1   
    38    20    45 1   
    39    21    22 ar  
    40    21    26 ar  
    41    22    23 ar  
    42    22    46 1   
    43    23    24 ar  
    44    23    47 1   
    45    24    25 ar  
    46    24    27 1   
    47    25    26 ar  
    48    25    48 1   
    49    26    49 1   
    50    27    28 1   
    51    27    29 1   
    52    27    30 1   
@<TRIPOS>SUBSTRUCTURE
     1 64M         1 TEMP              0 ****  ****    0 ROOT
