@<TRIPOS>MOLECULE
64N
   49    51     1     0     0
SMALL
bcc


@<TRIPOS>ATOM
      1 C18          0.0000     0.0000     0.0000 ca         1 64N      -0.049000
      2 C14          0.0100    -0.0010     2.4000 cp         1 64N       0.102000
      3 C13         -1.7540     0.9230     3.9010 ca         1 64N      -0.088000
      4 C12         -0.7320    -0.0010     3.6840 cp         1 64N      -0.098000
      5 C17          1.3980     0.0000     0.0000 ca         1 64N      -0.233600
      6 C16          2.0950     0.0000     1.2100 ca         1 64N      -0.049000
      7 C15          1.4050     0.0000     2.4020 ca         1 64N      -0.075500
      8 C11         -0.4100    -0.9270     4.6800 ca         1 64N       0.134100
      9 C10         -1.1080    -0.9220     5.8770 ca         1 64N      -0.135000
     10 C8          -2.4430     0.9170     5.1010 ca         1 64N       0.114100
     11 N2           3.6130     0.0330    -1.3230 nz         1 64N       0.132600
     12 C7          -4.0010     1.6530     6.5520 ca         1 64N       0.075100
     13 O4           1.5690    -0.0210    -2.3480 o          1 64N      -0.419100
     14 C5          -3.9650     2.2560     8.8750 ca         1 64N      -0.117000
     15 C6          -3.4520     2.3830     7.5940 ca         1 64N      -0.025100
     16 O3           0.5850    -1.8300     4.4750 oh         1 64N      -0.493100
     17 O1          -5.3380     3.3590    11.0580 o          1 64N      -0.574100
     18 O2          -3.4370     1.8270     5.2840 os         1 64N      -0.185200
     19 C1          -6.2410     3.3370    13.5630 c3         1 64N       0.017900
     20 C4          -5.0260     1.3980     9.1140 ca         1 64N      -0.022400
     21 C19         -0.6880    -0.0010     1.1920 ca         1 64N      -0.075500
     22 C20          2.1610    -0.0120    -1.3230 c          1 64N       0.405700
     23 C21         -5.0620     0.7950     6.7910 ca         1 64N      -0.025100
     24 C2          -6.2670     2.0330    12.7690 c3         1 64N      -0.092400
     25 C3          -5.6690     2.2680    11.3830 c          1 64N       0.604100
     26 C22         -5.5750     0.6680     8.0720 ca         1 64N      -0.117000
     27 Cl2         -5.8910    -0.0870     5.4790 cl         1 64N       0.001600
     28 Cl1         -2.1750     3.6210     7.4520 cl         1 64N       0.001600
     29 C9          -2.1200    -0.0050     6.0870 ca         1 64N      -0.132000
     30 H1          -0.5420    -0.0200    -0.9380 ha         1 64N       0.104000
     31 H2          -2.0020     1.6460     3.1340 ha         1 64N       0.124000
     32 H3           3.1780     0.0210     1.2120 ha         1 64N       0.104000
     33 H4           2.1200     0.2040     3.1890 ha         1 64N       0.135000
     34 H5          -0.8550    -1.6340     6.6540 ha         1 64N       0.120000
     35 H6           3.9460     0.0410    -2.2670 hn         1 64N       0.246467
     36 H7           3.9710    -0.7720    -0.8500 hn         1 64N       0.246467
     37 H8          -3.5610     2.8550     9.6820 ha         1 64N       0.140500
     38 H9           0.3500    -2.6520     4.8720 ho         1 64N       0.414000
     39 H10         -5.8570     0.2500    10.7110 hn         1 64N       0.184500
     40 H11         -5.2180     3.6820    13.6570 hc         1 64N       0.012700
     41 H12         -6.6570     3.1680    14.5480 hc         1 64N       0.012700
     42 H13         -6.8280     4.0860    13.0460 hc         1 64N       0.012700
     43 H14         -1.7720     0.0020     1.1920 ha         1 64N       0.135000
     44 H15         -7.2900     1.6930    12.6670 hc         1 64N       0.029700
     45 H16         -5.6870     1.2810    13.2900 hc         1 64N       0.029700
     46 H17         -6.4160     0.0100     8.2560 ha         1 64N       0.140500
     47 H18         -2.6690    -0.0100     7.0210 ha         1 64N       0.139000
     48 N1          -5.5500     1.1650    10.4480 ns         1 64N      -0.160100
     49 H23          3.9210     0.8680    -0.8660 hn         1 64N       0.246467
@<TRIPOS>BOND
     1     1     5 ar  
     2     1    21 ar  
     3     1    30 1   
     4     2     4 1   
     5     2     7 ar  
     6     2    21 ar  
     7     3     4 ar  
     8     3    10 ar  
     9     3    31 1   
    10     4     8 ar  
    11     5     6 ar  
    12     5    22 1   
    13     6     7 ar  
    14     6    32 1   
    15     7    33 1   
    16     8     9 ar  
    17     8    16 1   
    18     9    29 ar  
    19     9    34 1   
    20    10    18 1   
    21    10    29 ar  
    22    11    22 1   
    23    11    35 1   
    24    11    36 1   
    25    11    49 1   
    26    12    15 ar  
    27    12    18 1   
    28    12    23 ar  
    29    13    22 2   
    30    14    15 ar  
    31    14    20 ar  
    32    14    37 1   
    33    15    28 1   
    34    16    38 1   
    35    17    25 2   
    36    19    24 1   
    37    19    40 1   
    38    19    41 1   
    39    19    42 1   
    40    20    26 ar  
    41    20    48 1   
    42    21    43 1   
    43    23    26 ar  
    44    23    27 1   
    45    24    25 1   
    46    24    44 1   
    47    24    45 1   
    48    25    48 1   
    49    26    46 1   
    50    29    47 1   
    51    39    48 1   
@<TRIPOS>SUBSTRUCTURE
     1 64N         1 TEMP              0 ****  ****    0 ROOT
