@<TRIPOS>MOLECULE
molecule
   49    51     1     0     0
SMALL
bcc


@<TRIPOS>ATOM
      1 C18          0.0000     0.0000     0.0000 ca         1 64N      -0.081000
      2 C14          0.0100    -0.0010     2.4000 cp         1 64N       0.081000
      3 C13         -1.7540     0.9230     3.9010 ca         1 64N      -0.106000
      4 C12         -0.7320    -0.0010     3.6840 cp         1 64N      -0.085000
      5 C17          1.3980     0.0000     0.0000 ca         1 64N      -0.206600
      6 C16          2.0950     0.0000     1.2100 ca         1 64N      -0.081000
      7 C15          1.4050     0.0000     2.4020 ca         1 64N      -0.099500
      8 C11         -0.4100    -0.9270     4.6800 ca         1 64N       0.119100
      9 C10         -1.1080    -0.9220     5.8770 ca         1 64N      -0.160000
     10 C8          -2.4430     0.9170     5.1010 ca         1 64N       0.108100
     11 N2           3.6130     0.0330    -1.3230 nz         1 64N      -0.714400
     12 C7          -4.0010     1.6530     6.5520 ca         1 64N       0.061100
     13 O4           1.5690    -0.0210    -2.3480 o          1 64N      -0.401100
     14 C5          -3.9650     2.2560     8.8750 ca         1 64N      -0.142500
     15 C6          -3.4520     2.3830     7.5940 ca         1 64N       0.055400
     16 O3           0.5850    -1.8300     4.4750 oh         1 64N      -0.512100
     17 O1          -5.3380     3.3590    11.0580 o          1 64N      -0.539100
     18 O2          -3.4370     1.8270     5.2840 os         1 64N      -0.202200
     19 C1          -6.2410     3.3370    13.5630 c3         1 64N      -0.082100
     20 C4          -5.0260     1.3980     9.1140 ca         1 64N       0.106600
     21 C19         -0.6880    -0.0010     1.1920 ca         1 64N      -0.099500
     22 C20          2.1610    -0.0120    -1.3230 c          1 64N       0.531700
     23 C21         -5.0620     0.7950     6.7910 ca         1 64N       0.055400
     24 C2          -6.2670     2.0330    12.7690 c3         1 64N      -0.151400
     25 C3          -5.6690     2.2680    11.3830 c          1 64N       0.675100
     26 C22         -5.5750     0.6680     8.0720 ca         1 64N      -0.142500
     27 Cl2         -5.8910    -0.0870     5.4790 cl         1 64N      -0.085900
     28 Cl1         -2.1750     3.6210     7.4520 cl         1 64N      -0.085900
     29 C9          -2.1200    -0.0050     6.0870 ca         1 64N      -0.142000
     30 H1          -0.5420    -0.0200    -0.9380 ha         1 64N       0.136500
     31 H2          -2.0020     1.6460     3.1340 ha         1 64N       0.156000
     32 H3           3.1780     0.0210     1.2120 ha         1 64N       0.136500
     33 H4           2.1200     0.2040     3.1890 ha         1 64N       0.170000
     34 H5          -0.8550    -1.6340     6.6540 ha         1 64N       0.149000
     35 H6           3.9460     0.0410    -2.2670 hn         1 64N       0.467800
     36 H7           3.9710    -0.7720    -0.8500 hn         1 64N       0.467800
     37 H8          -3.5610     2.8550     9.6820 ha         1 64N       0.173000
     38 H9           0.3500    -2.6520     4.8720 ho         1 64N       0.432000
     39 H10         -5.8570     0.2500    10.7110 hn         1 64N       0.330500
     40 H11         -5.2180     3.6820    13.6570 hc         1 64N       0.050367
     41 H12         -6.6570     3.1680    14.5480 hc         1 64N       0.050367
     42 H13         -6.8280     4.0860    13.0460 hc         1 64N       0.050367
     43 H14         -1.7720     0.0020     1.1920 ha         1 64N       0.170000
     44 H15         -7.2900     1.6930    12.6670 hc         1 64N       0.066700
     45 H16         -5.6870     1.2810    13.2900 hc         1 64N       0.066700
     46 H17         -6.4160     0.0100     8.2560 ha         1 64N       0.173000
     47 H18         -2.6690    -0.0100     7.0210 ha         1 64N       0.159000
     48 N1          -5.5500     1.1650    10.4480 ns         1 64N      -0.547100
     49 H23          3.9210     0.8680    -0.8660 hn         1 64N       0.467800
@<TRIPOS>BOND
     1    13    22 2
     2    22    11 1
     3    22     5 1
     4     1     5 ar
     5     1    21 ar
     6     5     6 ar
     7    21     2 ar
     8     6     7 ar
     9     2     7 ar
    10     2     4 1
    11    16     8 1
    12     4     8 ar
    13     4     3 ar
    14     8     9 ar
    15     3    10 ar
    16     9    29 ar
    17    27    23 1
    18    10    29 ar
    19    10    18 1
    20    18    12 1
    21    23    12 ar
    22    23    26 ar
    23    12    15 ar
    24    26    20 ar
    25    15    28 1
    26    15    14 ar
    27    19    24 1
    28    20    14 ar
    29    20    48 1
    30    24    25 1
    31    48    25 1
    32    25    17 2
    33     1    30 1
    34     3    31 1
    35     6    32 1
    36     7    33 1
    37     9    34 1
    38    11    35 1
    39    11    36 1
    40    14    37 1
    41    16    38 1
    42    48    39 1
    43    19    40 1
    44    19    41 1
    45    19    42 1
    46    21    43 1
    47    24    44 1
    48    24    45 1
    49    26    46 1
    50    29    47 1
    51    49    11 1
@<TRIPOS>SUBSTRUCTURE
     1 64N         1 TEMP              0 ****  ****    0 ROOT
