@<TRIPOS>MOLECULE
molecule
   51    53     1     0     0
SMALL
bcc


@<TRIPOS>ATOM
      1 O4           0.0000     0.0000     0.0000 o          1 64O      -0.484100
      2 N3           1.8900     0.0000     1.1670 nz         1 64O      -0.671400
      3 C15          0.9820    -0.4390    -4.7010 ca         1 64O      -0.085500
      4 C16          1.6650    -0.5440    -3.5090 ca         1 64O      -0.121000
      5 C14         -0.1810     0.3280    -4.7720 cp         1 64O       0.014000
      6 C13         -2.2870     0.2170    -6.0990 ca         1 64O      -0.114000
      7 C12         -0.9150     0.4470    -6.0550 cp         1 64O      -0.060000
      8 N2           1.8890    -0.0000    -1.1670 ns         1 64O      -0.417100
      9 C4          -6.2170     0.4720   -10.9880 ca         1 64O       0.087600
     10 C5          -5.6900    -0.7520   -10.6020 ca         1 64O      -0.139000
     11 O1          -7.6420    -1.4760   -12.1080 o          1 64O      -0.582100
     12 N1          -6.8640     0.5980   -12.2240 ns         1 64O      -0.480100
     13 C6          -5.0500    -0.8760    -9.3840 ca         1 64O       0.043400
     14 C3          -7.6050    -0.4210   -12.7040 c          1 64O       0.658100
     15 C2          -8.3860    -0.2480   -13.9810 c3         1 64O      -0.157400
     16 C1          -9.1340    -1.5450   -14.3000 c3         1 64O      -0.077100
     17 C7          -4.9370     0.2230    -8.5440 ca         1 64O       0.071100
     18 C8          -2.9680     0.3310    -7.3000 ca         1 64O       0.129100
     19 C11         -0.2310     0.7930    -7.2250 ca         1 64O       0.100100
     20 C19          0.0330     0.8690    -2.4420 ca         1 64O      -0.121000
     21 C9          -2.2860     0.6790    -8.4580 ca         1 64O      -0.160000
     22 C18          1.2160     0.0000     0.0000 c          1 64O       0.570100
     23 C10         -0.9220     0.9030    -8.4210 ca         1 64O      -0.148000
     24 C17          1.1950     0.1080    -2.3760 ca         1 64O      -0.016400
     25 C21         -5.4630     1.4480    -8.9300 ca         1 64O       0.043400
     26 C22         -6.1070     1.5710   -10.1470 ca         1 64O      -0.139000
     27 C20         -0.6510     0.9820    -3.6340 ca         1 64O      -0.085500
     28 H1           1.2410     0.0490     1.9270 hn         1 64O       0.479467
     29 H2           2.4280    -0.8410     1.2410 hn         1 64O       0.479467
     30 H3           1.3500    -0.9480    -5.5840 ha         1 64O       0.165500
     31 H4           2.5690    -1.1400    -3.4540 ha         1 64O       0.141500
     32 H5          -2.8090    -0.1140    -5.2090 ha         1 64O       0.155000
     33 H6           2.8880    -0.0650    -1.1680 hn         1 64O       0.336500
     34 H7          -5.7780    -1.6100   -11.2580 ha         1 64O       0.173500
     35 H8          -6.8690     1.4810   -12.6960 hn         1 64O       0.330500
     36 H9          -7.7060    -0.0140   -14.7910 hc         1 64O       0.064700
     37 H10         -9.0980     0.5600   -13.8620 hc         1 64O       0.064700
     38 H11         -9.7420    -1.4020   -15.1850 hc         1 64O       0.049033
     39 H12         -8.4190    -2.3390   -14.4780 hc         1 64O       0.049033
     40 H13         -9.7690    -1.8100   -13.4640 hc         1 64O       0.049033
     41 H14          1.3060     1.8180    -7.6470 ho         1 64O       0.427000
     42 H15         -0.3320     1.3770    -1.5580 ha         1 64O       0.141500
     43 H16         -2.8220     0.7660    -9.3950 ha         1 64O       0.153000
     44 H17         -0.3940     1.1720    -9.3270 ha         1 64O       0.147000
     45 H18         -6.5180     2.5270   -10.4480 ha         1 64O       0.173500
     46 H19         -1.5550     1.5770    -3.6860 ha         1 64O       0.165500
     47 O3           1.1090     1.0170    -7.1900 oh         1 64O      -0.515100
     48 O2          -4.3080     0.1010    -7.3440 os         1 64O      -0.225200
     49 Cl2         -5.3200     2.8240    -7.8800 cl         1 64O      -0.071900
     50 H33          2.4700     0.8140     1.2170 hn         1 64O       0.479467
     51 Cl1         -4.3920    -2.4080    -8.9010 cl         1 64O      -0.071900
@<TRIPOS>BOND
     1     2    22 1
     2     1    22 2
     3    22     8 1
     4     8    24 1
     5    20    24 ar
     6    20    27 ar
     7    24     4 ar
     8    27     5 ar
     9     4     3 ar
    10     5     3 ar
    11     5     7 1
    12     7     6 ar
    13     7    19 ar
    14     6    18 ar
    15    47    19 1
    16    19    23 ar
    17    18    48 1
    18    18    21 ar
    19    51    13 1
    20    48    17 1
    21    23    21 ar
    22    17    13 ar
    23    17    25 ar
    24    13    10 ar
    25    25    49 1
    26    25    26 ar
    27    10     9 ar
    28    26     9 ar
    29     9    12 1
    30    11    14 2
    31    12    14 1
    32    14    15 1
    33    15    16 1
    34     2    28 1
    35     2    29 1
    36     3    30 1
    37     4    31 1
    38     6    32 1
    39     8    33 1
    40    10    34 1
    41    12    35 1
    42    15    36 1
    43    15    37 1
    44    16    38 1
    45    16    39 1
    46    16    40 1
    47    47    41 1
    48    20    42 1
    49    21    43 1
    50    23    44 1
    51    26    45 1
    52    27    46 1
    53    50     2 1
@<TRIPOS>SUBSTRUCTURE
     1 64O         1 TEMP              0 ****  ****    0 ROOT
