@<TRIPOS>MOLECULE
64O
   51    53     1     0     0
SMALL
bcc


@<TRIPOS>ATOM
      1 O4           0.0000     0.0000     0.0000 o          1 64O      -0.530100
      2 N3           1.8900     0.0000     1.1670 nz         1 64O       0.218600
      3 C15          0.9820    -0.4390    -4.7010 ca         1 64O      -0.066000
      4 C16          1.6650    -0.5440    -3.5090 ca         1 64O      -0.076000
      5 C14         -0.1810     0.3280    -4.7720 cp         1 64O       0.042000
      6 C13         -2.2870     0.2170    -6.0990 ca         1 64O      -0.092000
      7 C12         -0.9150     0.4470    -6.0550 cp         1 64O      -0.073000
      8 N2           1.8890    -0.0000    -1.1670 ns         1 64O       0.100900
      9 C4          -6.2170     0.4720   -10.9880 ca         1 64O      -0.056400
     10 C5          -5.6900    -0.7520   -10.6020 ca         1 64O      -0.113500
     11 O1          -7.6420    -1.4760   -12.1080 o          1 64O      -0.621100
     12 N1          -6.8640     0.5980   -12.2240 ns         1 64O      -0.043100
     13 C6          -5.0500    -0.8760    -9.3840 ca         1 64O      -0.029600
     14 C3          -7.6050    -0.4210   -12.7040 c          1 64O       0.563100
     15 C2          -8.3860    -0.2480   -13.9810 c3         1 64O      -0.096400
     16 C1          -9.1340    -1.5450   -14.3000 c3         1 64O       0.020900
     17 C7          -4.9370     0.2230    -8.5440 ca         1 64O       0.072100
     18 C8          -2.9680     0.3310    -7.3000 ca         1 64O       0.126100
     19 C11         -0.2310     0.7930    -7.2250 ca         1 64O       0.118100
     20 C19          0.0330     0.8690    -2.4420 ca         1 64O      -0.076000
     21 C9          -2.2860     0.6790    -8.4580 ca         1 64O      -0.144000
     22 C18          1.2160     0.0000     0.0000 c          1 64O       0.244100
     23 C10         -0.9220     0.9030    -8.4210 ca         1 64O      -0.125000
     24 C17          1.1950     0.1080    -2.3760 ca         1 64O      -0.201400
     25 C21         -5.4630     1.4480    -8.9300 ca         1 64O      -0.029600
     26 C22         -6.1070     1.5710   -10.1470 ca         1 64O      -0.113500
     27 C20         -0.6510     0.9820    -3.6340 ca         1 64O      -0.066000
     28 H1           1.2410     0.0490     1.9270 hn         1 64O       0.240800
     29 H2           2.4280    -0.8410     1.2410 hn         1 64O       0.240800
     30 H3           1.3500    -0.9480    -5.5840 ha         1 64O       0.132500
     31 H4           2.5690    -1.1400    -3.4540 ha         1 64O       0.116000
     32 H5          -2.8090    -0.1140    -5.2090 ha         1 64O       0.124000
     33 H6           2.8880    -0.0650    -1.1680 hn         1 64O       0.164500
     34 H7          -5.7780    -1.6100   -11.2580 ha         1 64O       0.144500
     35 H8          -6.8690     1.4810   -12.6960 hn         1 64O       0.173500
     36 H9          -7.7060    -0.0140   -14.7910 hc         1 64O       0.028700
     37 H10         -9.0980     0.5600   -13.8620 hc         1 64O       0.028700
     38 H11         -9.7420    -1.4020   -15.1850 hc         1 64O       0.012367
     39 H12         -8.4190    -2.3390   -14.4780 hc         1 64O       0.012367
     40 H13         -9.7690    -1.8100   -13.4640 hc         1 64O       0.012367
     41 H14          1.3060     1.8180    -7.6470 ho         1 64O       0.409000
     42 H15         -0.3320     1.3770    -1.5580 ha         1 64O       0.116000
     43 H16         -2.8220     0.7660    -9.3950 ha         1 64O       0.131000
     44 H17         -0.3940     1.1720    -9.3270 ha         1 64O       0.118000
     45 H18         -6.5180     2.5270   -10.4480 ha         1 64O       0.144500
     46 H19         -1.5550     1.5770    -3.6860 ha         1 64O       0.132500
     47 O3           1.1090     1.0170    -7.1900 oh         1 64O      -0.495100
     48 O2          -4.3080     0.1010    -7.3440 os         1 64O      -0.201200
     49 Cl2         -5.3200     2.8240    -7.8800 cl         1 64O       0.010100
     50 H33          2.4700     0.8140     1.2170 hn         1 64O       0.240800
     51 Cl1         -4.3920    -2.4080    -8.9010 cl         1 64O       0.010100
@<TRIPOS>BOND
     1     1    22 2   
     2     2    22 1   
     3     2    28 1   
     4     2    29 1   
     5     2    50 1   
     6     3     4 ar  
     7     3     5 ar  
     8     3    30 1   
     9     4    24 ar  
    10     4    31 1   
    11     5     7 1   
    12     5    27 ar  
    13     6     7 ar  
    14     6    18 ar  
    15     6    32 1   
    16     7    19 ar  
    17     8    22 1   
    18     8    24 1   
    19     8    33 1   
    20     9    10 ar  
    21     9    12 1   
    22     9    26 ar  
    23    10    13 ar  
    24    10    34 1   
    25    11    14 2   
    26    12    14 1   
    27    12    35 1   
    28    13    17 ar  
    29    13    51 1   
    30    14    15 1   
    31    15    16 1   
    32    15    36 1   
    33    15    37 1   
    34    16    38 1   
    35    16    39 1   
    36    16    40 1   
    37    17    25 ar  
    38    17    48 1   
    39    18    21 ar  
    40    18    48 1   
    41    19    23 ar  
    42    19    47 1   
    43    20    24 ar  
    44    20    27 ar  
    45    20    42 1   
    46    21    23 ar  
    47    21    43 1   
    48    23    44 1   
    49    25    26 ar  
    50    25    49 1   
    51    26    45 1   
    52    27    46 1   
    53    41    47 1   
@<TRIPOS>SUBSTRUCTURE
     1 64O         1 TEMP              0 ****  ****    0 ROOT
