@<TRIPOS>MOLECULE
64P
   39    37     1     0     0
SMALL
bcc


@<TRIPOS>ATOM
      1 P          -0.6270    0.1100   -1.8440 p5        1 64P      1.423800
      2 OP2        -1.6270   -0.5080   -0.9560 o         1 64P     -0.831500
      3 OP1        -0.7720    0.3960   -3.2880 o         1 64P     -0.831500
      4 O5'        -0.2590    1.6050   -1.1980 os        1 64P     -0.575200
      5 C5'        -1.2950    2.2830   -0.5810 c3        1 64P      0.184400
      6 C4'        -1.7140    3.5350   -1.3650 c3        1 64P      0.066100
      7 O4'        -0.8020    4.6240   -1.0170 os        1 64P     -0.420400
      8 C3'        -1.6700    3.3830   -2.9010 c3        1 64P      0.092100
      9 O3'        -2.8700    3.8220   -3.4980 oh        1 64P     -0.578800
     10 C2'        -0.4600    4.2200   -3.3390 c3        1 64P     -0.186700
     11 C1'        -0.0760    5.0100   -2.1160 c2        1 64P      0.454600
     12 N1          0.8230    5.9870   -2.0290 nh        1 64P     -0.140600
     13 C2          1.5940    6.5490   -3.1890 c1        1 64P      0.231500
     14 O2          1.2430    6.2190   -4.3190 o         1 64P     -0.660500
     15 N3          3.1790    8.2590   -5.2270 n2        1 64P     -0.827800
     16 C4          3.5840    8.6220   -4.1280 c1        1 64P      0.784900
     17 O4          4.1400    9.1600   -3.1980 o         1 64P     -0.512500
     18 C5          2.1560    7.2810   -0.3720 c2        1 64P      0.124800
     19 C5M         2.1120    7.9470    0.9740 c3        1 64P     -0.063900
     20 C6          1.0290    6.6200   -0.7790 c2        1 64P     -0.227100
     21 N5          3.3690    7.3240   -1.0490 nh        1 64P     -0.807600
     22 H5'         1.4270   -0.3050   -2.3920 ho        1 64P      0.433000
     23 H5'A       -2.1980    1.6170   -0.4670 h1        1 64P      0.052700
     24 H4'        -0.9470    2.6230    0.4360 h1        1 64P      0.052700
     25 H3'        -2.7170    3.8930   -1.0110 h1        1 64P      0.069700
     26 HO3'       -2.9720    4.7600   -3.2950 ho        1 64P      0.380000
     27 H2'        -1.5570    2.2910   -3.2100 h1        1 64P      0.194700
     28 H2'A        0.3910    3.5490   -3.6320 hc        1 64P      0.119700
     29 H1'        -0.6900    4.8890   -4.2070 hc        1 64P      0.119700
     30 HN3         2.5120    7.5430   -5.4160 hn        1 64P      0.545400
     31 H5M         1.1070    7.8270    1.4460 hc        1 64P      0.045367
     32 H5MA        2.3260    9.0400    0.8730 hc        1 64P      0.045367
     33 H5MB        2.8770    7.4960    1.6530 hc        1 64P      0.045367
     34 H6          1.2760    6.0640   -6.6510 ha        1 64P      0.001500
     35 H6A         1.3710    6.5880   -7.0690 ha        1 64P      0.001500
     36 HN5         0.1810    6.5250   -0.0750 h4        1 64P      0.146000
     37 HN5A        3.8690    8.1790   -0.9300 hn        1 64P      0.403800
     38 OP3         0.8420   -0.5550   -1.6850 oh        1 64P     -0.761400
     39 H53         3.3230    7.0430   -2.0120 hn        1 64P      0.403800
@<TRIPOS>BOND
     1    1    2 1   
     2    1    3 1   
     3    1    4 1   
     4    1   38 1   
     5    4    5 1   
     6    5    6 1   
     7    5   23 1   
     8    5   24 1   
     9    6    7 1   
    10    6    8 1   
    11    6   25 1   
    12    7   11 1   
    13    8    9 1   
    14    8   10 1   
    15    8   27 1   
    16    9   26 1   
    17   10   11 1   
    18   10   28 1   
    19   10   29 1   
    20   11   12 2   
    21   12   13 2   
    22   12   20 1   
    23   13   14 2   
    24   15   16 2   
    25   15   30 1   
    26   16   17 2   
    27   18   19 1   
    28   18   20 2   
    29   18   21 1   
    30   19   31 1   
    31   19   32 1   
    32   19   33 1   
    33   20   36 1   
    34   21   37 1   
    35   21   39 1   
    36   22   38 1   
    37   34   35 1   
@<TRIPOS>SUBSTRUCTURE
     1 64P         1 TEMP              0 ****  ****    0 ROOT
