@<TRIPOS>MOLECULE
molecule
   39    40     1     0     0
SMALL
bcc


@<TRIPOS>ATOM
      1 P            0.0000     0.0000     0.0000 p5         1 64P       1.189900
      2 OP2          1.6100     0.0000     0.0000 o          1 64P      -0.793167
      3 OP1         -0.5360     0.0000     1.5180 o          1 64P      -0.793167
      4 O5'         -0.5360     1.3130    -0.7600 os         1 64P      -0.585200
      5 C5'         -0.3190     1.5520    -2.1510 c3         1 64P       0.241400
      6 C4'         -0.9580     2.8850    -2.5470 c3         1 64P       0.186100
      7 O4'         -0.2780     3.9850    -1.9040 os         1 64P      -0.361600
      8 C3'         -0.7470     3.1640    -4.0570 c3         1 64P      -0.219900
      9 O3'         -1.7780     2.5520    -4.8370 oh         1 64P      -0.637800
     10 C2'         -0.8520     4.7070    -4.1190 c3         1 64P      -0.143400
     11 C1'         -0.5640     5.1630    -2.6760 c3         1 64P       0.300500
     12 N1           0.5920     6.0630    -2.6590 n          1 64P      -0.517800
     13 C2           1.7990     5.5970    -3.0190 c          1 64P       0.763500
     14 O2           1.8920     4.4660    -3.4550 o          1 64P      -0.547500
     15 N3           2.9050     6.3520    -2.9120 ns         1 64P      -0.556500
     16 C4           2.8910     7.5080    -2.2220 c          1 64P       0.662500
     17 O4           3.8760     8.2140    -2.2030 o          1 64P      -0.592500
     18 C5           1.6500     7.9220    -1.4730 c3         1 64P      -0.009800
     19 C5M          1.6220     9.4460    -1.3330 c3         1 64P      -0.089100
     20 C6           0.4140     7.4580    -2.2530 c3         1 64P       0.107000
     21 N5           1.6540     7.3070    -0.1380 nz         1 64P      -0.808600
     22 H5'          0.7460     1.5890    -2.3490 h1         1 64P       0.057200
     23 H5'A        -0.7660     0.7520    -2.7290 h1         1 64P       0.057200
     24 H4'         -2.0130     2.8970    -2.3030 h1         1 64P       0.021700
     25 H3'         -1.6610     3.1260    -3.4770 h1         1 64P       0.259700
     26 HO3'        -0.9330     2.2520    -5.1290 ho         1 64P       0.495000
     27 H2'         -0.1080     5.1090    -4.7970 hc         1 64P       0.058200
     28 H2'A        -1.8490     5.0060    -4.4190 hc         1 64P       0.058200
     29 H1'         -1.4340     5.6650    -2.2700 h2         1 64P       0.049700
     30 HN3          3.6770     5.7190    -2.9820 hn         1 64P       0.372500
     31 H5M          2.4560     9.7680    -0.7200 hc         1 64P       0.064033
     32 H5MA         1.6990     9.9000    -2.3140 hc         1 64P       0.064033
     33 H5MB         0.6930     9.7490    -0.8670 hc         1 64P       0.064033
     34 H6          -0.4620     7.5410    -1.6220 h1         1 64P       0.068200
     35 H6A          0.2920     8.0770    -3.1340 h1         1 64P       0.068200
     36 HN5          1.8130     6.3230    -0.2250 hn         1 64P       0.412800
     37 HN5A         2.3810     7.7150     0.4150 hn         1 64P       0.412800
     38 OP3         -0.4920    -1.2040    -0.7060 o          1 64P      -0.793167
     39 H53          0.7700     7.4650     0.3040 hn         1 64P       0.412800
@<TRIPOS>BOND
     1     1     2 1
     2     1     3 1
     3     1     4 1
     4     4     5 1
     5     5     6 1
     6     6     7 1
     7     6     8 1
     8     7    11 1
     9     8     9 1
    10     8    10 1
    11    10    11 1
    12    11    12 1
    13    12    13 1
    14    12    20 1
    15    13    14 2
    16    13    15 1
    17    15    16 1
    18    16    17 2
    19    16    18 1
    20    18    19 1
    21    18    20 1
    22    18    21 1
    23     5    22 1
    24     5    23 1
    25     6    24 1
    26     8    25 1
    27     9    26 1
    28    10    27 1
    29    10    28 1
    30    11    29 1
    31    15    30 1
    32    19    31 1
    33    19    32 1
    34    19    33 1
    35    20    34 1
    36    20    35 1
    37    21    36 1
    38    21    37 1
    39     1    38 1
    40    39    21 1
@<TRIPOS>SUBSTRUCTURE
     1 64P         1 TEMP              0 ****  ****    0 ROOT
