@<TRIPOS>MOLECULE
molecule
   31    33     1     0     0
SMALL
bcc


@<TRIPOS>ATOM
      1 C10          0.0000     0.0000     0.0000 ca         1 64Q      -0.089000
      2 C17          1.4330     1.3550     6.2350 cc         1 64Q       0.373500
      3 C02          0.6110    -0.6830     6.9530 cc         1 64Q       0.475600
      4 C03         -0.0930    -0.8410     5.7590 cc         1 64Q      -0.319300
      5 C04         -0.0100     0.1320     4.7980 cd         1 64Q       0.255300
      6 N05         -0.6950     0.0030     3.6100 nu         1 64Q      -0.694000
      7 C06          0.0030     0.0020     2.3980 ca         1 64Q       0.161600
      8 C07          1.3920     0.0020     2.3950 ca         1 64Q      -0.182000
      9 C08          2.0770     0.0000     1.1960 ca         1 64Q      -0.089000
     10 C09          1.3820     0.0000     0.0000 ca         1 64Q      -0.156000
     11 C11         -0.6920     0.0020     1.1950 ca         1 64Q      -0.135300
     12 C12         -2.1990     0.0030     1.1940 c3         1 64Q      -0.047800
     13 N13          0.7560     1.2390     5.0450 na         1 64Q      -0.242000
     14 C14          1.0450     2.3660     4.3360 cc         1 64Q       0.293700
     15 N15          1.8420     3.0940     5.0700 nd         1 64Q      -0.330700
     16 N16          2.0780     2.5090     6.1900 nd         1 64Q      -0.075000
     17 N18          1.3450     0.3900     7.1600 nd         1 64Q      -0.651000
     18 H1          -0.5410    -0.0000    -0.9390 ha         1 64Q       0.136000
     19 H2           1.0020    -2.6560     7.6520 hc         1 64Q       0.062033
     20 H3          -0.5070    -1.9510     8.2470 hc         1 64Q       0.062033
     21 H4           1.0430    -1.4100     8.9070 hc         1 64Q       0.062033
     22 H5          -0.5670    -1.7880     5.5310 ha         1 64Q       0.164000
     23 H6          -1.6870    -0.1280     3.6160 hn         1 64Q       0.469800
     24 H7           1.9370     0.0020     3.3310 ha         1 64Q       0.142000
     25 H8           3.1610    -0.0000     1.1920 ha         1 64Q       0.139000
     26 H9           1.9230    -0.0020    -0.9390 ha         1 64Q       0.135000
     27 H10         -2.5600     0.8620     1.7470 hc         1 64Q       0.044033
     28 H11         -2.5590     0.0540     0.1740 hc         1 64Q       0.044033
     29 H12         -2.5620    -0.9050     1.6600 hc         1 64Q       0.044033
     30 H13          0.6800     2.6130     3.3460 h5         1 64Q       0.091800
     31 C01          0.5320    -1.7500     8.0140 c3         1 64Q      -0.142400
@<TRIPOS>BOND
     1    12    11 1   
     2    31     3 1   
     3     3     4 1   
     4     3    17 2   
     5     1    11 ar  
     6     1    10 ar  
     7    11     7 ar  
     8     4     5 2   
     9    17     2 1   
    10    10     9 ar  
    11     5     6 1   
    12     5    13 1   
    13     2    13 1   
    14     2    16 2   
    15     7     6 1   
    16     7     8 ar  
    17    13    14 1   
    18    16    15 1   
    19     9     8 ar  
    20    14    15 2   
    21     1    18 1   
    22    31    19 1   
    23    31    20 1   
    24    31    21 1   
    25     4    22 1   
    26     6    23 1   
    27     8    24 1   
    28     9    25 1   
    29    10    26 1   
    30    12    27 1   
    31    12    28 1   
    32    12    29 1   
    33    14    30 1   
@<TRIPOS>SUBSTRUCTURE
     1 64Q         1 TEMP              0 ****  ****    0 ROOT
