@<TRIPOS>MOLECULE
64R
   24    25     1     0     0
SMALL
bcc


@<TRIPOS>ATOM
      1 C13          0.0000     0.0000     0.0000 ca         1 64R      -0.103000
      2 C01          2.1340     0.0020    -1.3070 c3         1 64R       0.066200
      3 C02          1.3840     0.0000     0.0000 ca         1 64R      -0.090300
      4 C03          2.0790     0.0000     1.1940 ca         1 64R      -0.090000
      5 C04          1.3970     0.0000     2.3980 ca         1 64R      -0.099000
      6 C05          0.0140     0.0000     2.4060 ca         1 64R       0.104100
      7 O06         -0.6730     0.0020     3.5800 os         1 64R      -0.300900
      8 C07         -1.9250     0.6940     3.5920 c3         1 64R       0.119100
      9 C08         -2.7030     0.3170     4.8530 c3         1 64R       0.015900
     10 C09         -2.7260     0.3120     2.3740 c          1 64R       0.568500
     11 O10         -3.9380     0.2870     2.4250 o          1 64R      -0.657500
     12 N11         -2.0900    -0.0030     1.2240 ns         1 64R      -0.017100
     13 C12         -0.6880     0.0050     1.2010 ca         1 64R      -0.153400
     14 H1          -0.5420    -0.0820    -0.9350 ha         1 64R       0.113000
     15 H2           2.0590    -0.9760    -1.7680 hc         1 64R       0.008367
     16 H3           3.1760     0.2360    -1.1250 hc         1 64R       0.008367
     17 H4           1.7070     0.7470    -1.9680 hc         1 64R       0.008367
     18 H5           3.1620    -0.0000     1.1880 ha         1 64R       0.110000
     19 H6           1.9450     0.0000     3.3330 ha         1 64R       0.118000
     20 H7          -1.7430     1.7620     3.5800 h1         1 64R       0.030700
     21 H8          -2.0950     0.5180     5.7270 hc         1 64R       0.020033
     22 H9          -2.9540    -0.7360     4.8220 hc         1 64R       0.020033
     23 H10         -3.6130     0.9030     4.9050 hc         1 64R       0.020033
     24 H11         -2.6000    -0.4090     0.4650 hn         1 64R       0.182500
@<TRIPOS>BOND
     1     1     3 ar  
     2     1    13 ar  
     3     1    14 1   
     4     2     3 1   
     5     2    15 1   
     6     2    16 1   
     7     2    17 1   
     8     3     4 ar  
     9     4     5 ar  
    10     4    18 1   
    11     5     6 ar  
    12     5    19 1   
    13     6     7 1   
    14     6    13 ar  
    15     7     8 1   
    16     8     9 1   
    17     8    10 1   
    18     8    20 1   
    19     9    21 1   
    20     9    22 1   
    21     9    23 1   
    22    10    11 2   
    23    10    12 1   
    24    12    13 1   
    25    12    24 1   
@<TRIPOS>SUBSTRUCTURE
     1 64R         1 TEMP              0 ****  ****    0 ROOT
