@<TRIPOS>MOLECULE
64S
   32    33     1     0     0
SMALL
bcc


@<TRIPOS>ATOM
      1 C10          0.0000     0.0000     0.0000 ca         1 64S       0.165100
      2 C13          1.4020     0.0000     0.0000 ca         1 64S       0.117100
      3 C15          3.5030    -0.0010    -1.1150 c3         1 64S       0.241700
      4 C17          1.4080    -0.0000     2.3920 ca         1 64S      -0.314600
      5 C01          5.6530     0.0010     4.7790 c3         1 64S      -0.008100
      6 C02          4.1380    -0.0000     4.9940 c3         1 64S       0.162800
      7 C04          2.0820    -0.0000     3.6360 ca         1 64S       0.564200
      8 N05          1.3530    -0.0010     4.7450 nb         1 64S      -0.741000
      9 C06          0.0300    -0.0010     4.7030 ca         1 64S       0.684900
     10 N07         -0.6480    -0.0000     3.5790 nb         1 64S      -0.690000
     11 C08         -0.0090    -0.0000     2.3990 ca         1 64S       0.456600
     12 C09         -0.7040     0.0010     1.1840 ca         1 64S      -0.261300
     13 O11         -0.6710     0.0060    -1.1810 os         1 64S      -0.292900
     14 C12         -2.0980     0.0120    -1.1170 c3         1 64S       0.239700
     15 O14          2.0750    -0.0010    -1.1820 os         1 64S      -0.291900
     16 C16          2.1000     0.0000     1.1740 ca         1 64S      -0.165000
     17 H1           3.8400     0.8840    -0.5880 h1         1 64S      -0.003633
     18 H2           3.8400    -0.8850    -0.5880 h1         1 64S      -0.003633
     19 H3           3.9120    -0.0010    -2.1180 h1         1 64S      -0.003633
     20 H4           5.9400    -0.8860     4.2260 hc         1 64S       0.008367
     21 H5           5.9380     0.8830     4.2190 hc         1 64S       0.008367
     22 H6           6.1540     0.0060     5.7390 hc         1 64S       0.008367
     23 H7           3.8520     0.8840     5.5510 h1         1 64S       0.027200
     24 H8           3.8530    -0.8850     5.5500 h1         1 64S       0.027200
     25 H9           3.9960    -0.0190     2.8500 hn         1 64S       0.296800
     26 H10         -0.5180    -0.0020     5.6370 h5         1 64S      -0.008900
     27 H11         -1.7870     0.0010     1.1740 ha         1 64S       0.142000
     28 H12         -2.5050     0.0170    -2.1210 h1         1 64S       0.000700
     29 H13         -2.4400    -0.8730    -0.5930 h1         1 64S       0.000700
     30 H14         -2.4320     0.8960    -0.5870 h1         1 64S       0.000700
     31 H15          3.1840     0.0000     1.1640 ha         1 64S       0.122000
     32 N03          3.4600    -0.0000     3.6950 nu         1 64S      -0.489900
@<TRIPOS>BOND
     1     1     2 ar  
     2     1    12 ar  
     3     1    13 1   
     4     2    15 1   
     5     2    16 ar  
     6     3    15 1   
     7     3    17 1   
     8     3    18 1   
     9     3    19 1   
    10     4     7 ar  
    11     4    11 ar  
    12     4    16 ar  
    13     5     6 1   
    14     5    20 1   
    15     5    21 1   
    16     5    22 1   
    17     6    23 1   
    18     6    24 1   
    19     6    32 1   
    20     7     8 ar  
    21     7    32 1   
    22     8     9 ar  
    23     9    10 ar  
    24     9    26 1   
    25    10    11 ar  
    26    11    12 ar  
    27    12    27 1   
    28    13    14 1   
    29    14    28 1   
    30    14    29 1   
    31    14    30 1   
    32    16    31 1   
    33    25    32 1   
@<TRIPOS>SUBSTRUCTURE
     1 64S         1 TEMP              0 ****  ****    0 ROOT
