@<TRIPOS>MOLECULE
molecule
   29    28     1     0     0
SMALL
bcc


@<TRIPOS>ATOM
      1 C1           0.0000     0.0000     0.0000 c2         1 64Z       0.032600
      2 C2           1.3100     0.0000     0.0000 c2         1 64Z      -0.515200
      3 C3           2.0630     0.0000     1.3060 c3         1 64Z      -0.089200
      4 C4           2.9660    -1.2330     1.3730 c3         1 64Z      -0.065200
      5 C5           3.7200    -1.2320     2.6780 c2         1 64Z      -0.120400
      6 C6           3.2550    -1.9040     3.7020 c2         1 64Z      -0.175200
      7 C7           4.0090    -1.9040     5.0080 c3         1 64Z       0.172600
      8 C8           5.0080    -0.4600     2.8050 c3         1 64Z      -0.056900
      9 C9          -0.7540    -0.1340     1.2980 c3         1 64Z      -0.093900
     10 O            3.0930    -1.7000     6.0870 oh         1 64Z      -0.607800
     11 C           -0.7530     0.1420    -1.2980 c3         1 64Z      -0.093900
     12 H1           1.4960    -0.9150     0.5500 ha         1 64Z       0.334000
     13 H2           1.3600    -0.0220     2.1290 hc         1 64Z       0.061700
     14 H3           2.6690     0.8960     1.3730 hc         1 64Z       0.061700
     15 H4           3.6700    -1.2100     0.5500 hc         1 64Z       0.058200
     16 H5           2.3610    -2.1280     1.3060 hc         1 64Z       0.058200
     17 H6           2.3290    -2.4580     3.6110 ha         1 64Z       0.133000
     18 H7           4.5110    -2.8550     5.1350 h1         1 64Z       0.030200
     19 H8           4.7420    -1.1060     5.0020 h1         1 64Z       0.030200
     20 H9           5.2610    -0.0200     1.8480 hc         1 64Z       0.045700
     21 H10          5.8010    -1.1300     3.1160 hc         1 64Z       0.045700
     22 H11          4.8880     0.3240     3.5430 hc         1 64Z       0.045700
     23 H12         -0.5000     0.6920     1.9500 hc         1 64Z       0.051367
     24 H13         -1.8190    -0.1240     1.0990 hc         1 64Z       0.051367
     25 H14         -0.4840    -1.0680     1.7770 hc         1 64Z       0.051367
     26 H15          3.4980    -1.9640     6.8960 ho         1 64Z       0.401000
     27 H16         -1.3460    -0.7480    -1.4710 hc         1 64Z       0.051367
     28 H17         -1.4040     1.0060    -1.2450 hc         1 64Z       0.051367
     29 H18         -0.0490     0.2690    -2.1120 hc         1 64Z       0.051367
@<TRIPOS>BOND
     1     9     1 1   
     2    11     1 1   
     3     1     2 2   
     4     2     3 1   
     5     3     4 1   
     6     4     5 1   
     7     8     5 1   
     8     5     6 2   
     9    10     7 1   
    10     6     7 1   
    11     2    12 1   
    12     3    13 1   
    13     3    14 1   
    14     4    15 1   
    15     4    16 1   
    16     6    17 1   
    17     7    18 1   
    18     7    19 1   
    19     8    20 1   
    20     8    21 1   
    21     8    22 1   
    22     9    23 1   
    23     9    24 1   
    24     9    25 1   
    25    10    26 1   
    26    11    27 1   
    27    11    28 1   
    28    11    29 1   
@<TRIPOS>SUBSTRUCTURE
     1 64Z         1 TEMP              0 ****  ****    0 ROOT
