@<TRIPOS>MOLECULE
molecule
   28    27     1     0     0
SMALL
bcc


@<TRIPOS>ATOM
      1 C1           0.0000     0.0000     0.0000 c2         1 650      -0.131400
      2 C2           1.3100     0.0000     0.0000 c2         1 650      -0.184200
      3 C3           2.0640     0.0000     1.3050 c3         1 650      -0.045200
      4 C4           2.9690    -1.2320     1.3700 c3         1 650      -0.034200
      5 C5           3.7240    -1.2330     2.6750 c2         1 650      -0.135400
      6 C6           5.0110    -0.4590     2.8020 c3         1 650      -0.050900
      7 C7           3.2610    -1.9050     3.6990 c2         1 650      -0.183200
      8 C8           4.0150    -1.9060     5.0040 c3         1 650      -0.055900
      9 C9          -0.7540     0.1360    -1.2980 c3         1 650      -0.051400
     10 C           -0.7520    -0.1410     1.2980 c3         1 650      -0.051400
     11 H1           1.8500     0.0980    -0.9340 ha         1 650       0.123000
     12 H2           2.6680     0.8970     1.3730 hc         1 650       0.050700
     13 H3           1.3610    -0.0250     2.1280 hc         1 650       0.050700
     14 H4           3.6730    -1.2070     0.5460 hc         1 650       0.047700
     15 H5           2.3650    -2.1280     1.3010 hc         1 650       0.047700
     16 H6           5.2610    -0.0150     1.8460 hc         1 650       0.040367
     17 H7           4.8910     0.3230     3.5420 hc         1 650       0.040367
     18 H8           5.8060    -1.1270     3.1080 hc         1 650       0.040367
     19 H9           2.3350    -2.4610     3.6080 ha         1 650       0.123000
     20 H10          3.4820    -2.5100     5.7280 hc         1 650       0.038700
     21 H11          4.1000    -0.8910     5.3720 hc         1 650       0.038700
     22 H12          5.0040    -2.3190     4.8480 hc         1 650       0.038700
     23 H13         -0.0630     0.3940    -2.0910 hc         1 650       0.040533
     24 H14         -1.2400    -0.8030    -1.5330 hc         1 650       0.040533
     25 H15         -1.5010     0.9150    -1.2010 hc         1 650       0.040533
     26 H16         -0.4700    -1.0690     1.7800 hc         1 650       0.040533
     27 H17         -0.5110     0.6910     1.9480 hc         1 650       0.040533
     28 H18         -1.8170    -0.1470     1.0990 hc         1 650       0.040533
@<TRIPOS>BOND
     1    10     1 1   
     2     6     5 1   
     3     3     2 1   
     4     3     4 1   
     5     5     7 2   
     6     5     4 1   
     7     1     2 2   
     8     1     9 1   
     9     8     7 1   
    10     2    11 1   
    11     3    12 1   
    12     3    13 1   
    13     4    14 1   
    14     4    15 1   
    15     6    16 1   
    16     6    17 1   
    17     6    18 1   
    18     7    19 1   
    19     8    20 1   
    20     8    21 1   
    21     8    22 1   
    22     9    23 1   
    23     9    24 1   
    24     9    25 1   
    25    10    26 1   
    26    10    27 1   
    27    10    28 1   
@<TRIPOS>SUBSTRUCTURE
     1 650         1 TEMP              0 ****  ****    0 ROOT
