@<TRIPOS>MOLECULE
651
   42    45     1     0     0
SMALL
bcc


@<TRIPOS>ATOM
      1 OAA          1.4290     0.0000     0.0000 oh         1 651      -0.583800
      2 CAB         -2.8590     6.9400    -4.0470 ca         1 651      -0.101000
      3 CAC         -1.5960     6.4520    -4.3260 ca         1 651      -0.098000
      4 CAD         -3.6600     6.3080    -3.1130 ca         1 651      -0.098000
      5 CAE         -1.1270     5.3280    -3.6740 ca         1 651      -0.099500
      6 CAF         -3.2020     5.1850    -2.4550 ca         1 651      -0.099500
      7 CAG         -2.2360     2.8390    -1.0870 ca         1 651      -0.100500
      8 CAH         -0.1610     2.9830    -2.3060 ca         1 651      -0.100500
      9 CAI         -1.7690     1.7160    -0.4350 ca         1 651      -0.097500
     10 CAJ          0.2960     1.8590    -1.6480 ca         1 651      -0.097500
     11 CAK         -2.0470    -1.2520    -0.6690 c3         1 651      -0.064900
     12 CAL         -0.0110    -2.4910     0.0560 c3         1 651      -0.064900
     13 CAM         -2.5040    -1.2170     0.7920 c3         1 651       0.155300
     14 CAN         -0.5240    -2.4210     1.4980 c3         1 651       0.155300
     15 CAO         -0.5130     0.0000     1.4430 c3         1 651       0.107800
     16 CAP         -1.9310     4.6880    -2.7320 cp         1 651      -0.032000
     17 CAQ         -1.4330     3.4800    -2.0280 cp         1 651      -0.027000
     18 CAR         -0.5060     1.2260    -0.7150 ca         1 651      -0.125300
     19 CAS         -0.5140    -1.2600    -0.7090 c3         1 651      -0.028700
     20 NAT         -1.3270    -1.2030     1.6700 n3         1 651      -0.530600
     21 CAU          0.0000     0.0000     0.0000 c3         1 651       0.203100
     22 HOAA         1.7430     0.6400     0.6170 ho         1 651       0.397000
     23 HAC         -0.9730     6.9510    -5.0580 ha         1 651       0.102000
     24 HAD         -4.6480     6.6950    -2.8980 ha         1 651       0.102000
     25 HAE         -0.1380     4.9460    -3.8930 ha         1 651       0.111500
     26 HAF         -3.8310     4.6910    -1.7240 ha         1 651       0.111500
     27 HAG         -3.2250     3.2220    -0.8670 ha         1 651       0.113000
     28 HAH          0.4670     3.4780    -3.0370 ha         1 651       0.113000
     29 HAI         -2.3930     1.2170     0.2970 ha         1 651       0.124000
     30 HAJ          1.2850     1.4710    -1.8630 ha         1 651       0.124000
     31 HAK         -2.4280    -2.1460    -1.1480 hc         1 651       0.028200
     32 HAKA        -2.4200    -0.3760    -1.1870 hc         1 651       0.028200
     33 HAL         -0.3830    -3.3910    -0.4190 hc         1 651       0.028200
     34 HALA         1.0720    -2.5020     0.0560 hc         1 651       0.028200
     35 HAM         -3.1020    -2.0950     1.0050 h1         1 651       0.022700
     36 HAMA        -3.0950    -0.3260     0.9650 h1         1 651       0.022700
     37 HAN         -1.1370    -3.2900     1.7060 h1         1 651       0.022700
     38 HANA         0.3170    -2.4000     2.1800 h1         1 651       0.022700
     39 HAO         -1.1170     0.8830     1.6120 h1         1 651       0.038200
     40 HAOA         0.3280     0.0020     2.1250 h1         1 651       0.038200
     41 HAS         -0.1640    -1.2840    -1.7340 hc         1 651       0.045700
     42 HAB         -3.2230     7.8220    -4.5620 ha         1 651       0.102000
@<TRIPOS>BOND
     1     1    21 1   
     2     1    22 1   
     3     2     3 ar  
     4     2     4 ar  
     5     2    42 1   
     6     3     5 ar  
     7     3    23 1   
     8     4     6 ar  
     9     4    24 1   
    10     5    16 ar  
    11     5    25 1   
    12     6    16 ar  
    13     6    26 1   
    14     7     9 ar  
    15     7    17 ar  
    16     7    27 1   
    17     8    10 ar  
    18     8    17 ar  
    19     8    28 1   
    20     9    18 ar  
    21     9    29 1   
    22    10    18 ar  
    23    10    30 1   
    24    11    13 1   
    25    11    19 1   
    26    11    31 1   
    27    11    32 1   
    28    12    14 1   
    29    12    19 1   
    30    12    33 1   
    31    12    34 1   
    32    13    20 1   
    33    13    35 1   
    34    13    36 1   
    35    14    20 1   
    36    14    37 1   
    37    14    38 1   
    38    15    20 1   
    39    15    21 1   
    40    15    39 1   
    41    15    40 1   
    42    16    17 1   
    43    18    21 1   
    44    19    21 1   
    45    19    41 1   
@<TRIPOS>SUBSTRUCTURE
     1 651         1 TEMP              0 ****  ****    0 ROOT
