@<TRIPOS>MOLECULE
molecule
   42    45     1     0     0
SMALL
bcc


@<TRIPOS>ATOM
      1 OAA          1.4290     0.0000     0.0000 oh         1 651      -0.599800
      2 CAB         -2.8590     6.9400    -4.0470 ca         1 651      -0.126000
      3 CAC         -1.5960     6.4520    -4.3260 ca         1 651      -0.126000
      4 CAD         -3.6600     6.3080    -3.1130 ca         1 651      -0.126000
      5 CAE         -1.1270     5.3280    -3.6740 ca         1 651      -0.119000
      6 CAF         -3.2020     5.1850    -2.4550 ca         1 651      -0.119000
      7 CAG         -2.2360     2.8390    -1.0870 ca         1 651      -0.122500
      8 CAH         -0.1610     2.9830    -2.3060 ca         1 651      -0.122500
      9 CAI         -1.7690     1.7160    -0.4350 ca         1 651      -0.119000
     10 CAJ          0.2960     1.8590    -1.6480 ca         1 651      -0.119000
     11 CAK         -2.0470    -1.2520    -0.6690 c3         1 651      -0.117400
     12 CAL         -0.0110    -2.4910     0.0560 c3         1 651      -0.117400
     13 CAM         -2.5040    -1.2170     0.7920 c3         1 651       0.158800
     14 CAN         -0.5240    -2.4210     1.4980 c3         1 651       0.158800
     15 CAO         -0.5130     0.0000     1.4430 c3         1 651       0.131800
     16 CAP         -1.9310     4.6880    -2.7320 cp         1 651      -0.036000
     17 CAQ         -1.4330     3.4800    -2.0280 cp         1 651      -0.032000
     18 CAR         -0.5060     1.2260    -0.7150 ca         1 651      -0.115300
     19 CAS         -0.5140    -1.2600    -0.7090 c3         1 651      -0.043700
     20 NAT         -1.3270    -1.2030     1.6700 n3         1 651      -0.710600
     21 CAU          0.0000     0.0000     0.0000 c3         1 651       0.168100
     22 HOAA         1.7430     0.6400     0.6170 ho         1 651       0.406000
     23 HAC         -0.9730     6.9510    -5.0580 ha         1 651       0.130000
     24 HAD         -4.6480     6.6950    -2.8980 ha         1 651       0.130000
     25 HAE         -0.1380     4.9460    -3.8930 ha         1 651       0.132500
     26 HAF         -3.8310     4.6910    -1.7240 ha         1 651       0.132500
     27 HAG         -3.2250     3.2220    -0.8670 ha         1 651       0.134500
     28 HAH          0.4670     3.4780    -3.0370 ha         1 651       0.134500
     29 HAI         -2.3930     1.2170     0.2970 ha         1 651       0.143500
     30 HAJ          1.2850     1.4710    -1.8630 ha         1 651       0.143500
     31 HAK         -2.4280    -2.1460    -1.1480 hc         1 651       0.053700
     32 HAKA        -2.4200    -0.3760    -1.1870 hc         1 651       0.053700
     33 HAL         -0.3830    -3.3910    -0.4190 hc         1 651       0.053700
     34 HALA         1.0720    -2.5020     0.0560 hc         1 651       0.053700
     35 HAM         -3.1020    -2.0950     1.0050 h1         1 651       0.054700
     36 HAMA        -3.0950    -0.3260     0.9650 h1         1 651       0.054700
     37 HAN         -1.1370    -3.2900     1.7060 h1         1 651       0.054700
     38 HANA         0.3170    -2.4000     2.1800 h1         1 651       0.054700
     39 HAO         -1.1170     0.8830     1.6120 h1         1 651       0.065200
     40 HAOA         0.3280     0.0020     2.1250 h1         1 651       0.065200
     41 HAS         -0.1640    -1.2840    -1.7340 hc         1 651       0.072700
     42 HAB         -3.2230     7.8220    -4.5620 ha         1 651       0.129000
@<TRIPOS>BOND
     1     1    21 1
     2     2     3 ar
     3     2     4 ar
     4     3     5 ar
     5     4     6 ar
     6     5    16 ar
     7     6    16 ar
     8     7     9 ar
     9     7    17 ar
    10     8    10 ar
    11     8    17 ar
    12     9    18 ar
    13    10    18 ar
    14    11    13 1
    15    11    19 1
    16    12    14 1
    17    12    19 1
    18    13    20 1
    19    14    20 1
    20    15    20 1
    21    15    21 1
    22    16    17 1
    23    18    21 1
    24    19    21 1
    25     1    22 1
    26     2    42 1
    27     3    23 1
    28     4    24 1
    29     5    25 1
    30     6    26 1
    31     7    27 1
    32     8    28 1
    33     9    29 1
    34    10    30 1
    35    11    31 1
    36    11    32 1
    37    12    33 1
    38    12    34 1
    39    13    35 1
    40    13    36 1
    41    14    37 1
    42    14    38 1
    43    15    39 1
    44    15    40 1
    45    19    41 1
@<TRIPOS>SUBSTRUCTURE
     1 651         1 TEMP              0 ****  ****    0 ROOT
