@<TRIPOS>MOLECULE
molecule
   64    67     1     0     0
SMALL
bcc


@<TRIPOS>ATOM
      1 C25          0.0000     0.0000     0.0000 c3         1 652      -0.225300
      2 S1           1.8150     0.0000     0.0000 sy         1 652       1.193300
      3 O2           2.3130     0.0000     1.3300 o          1 652      -0.616800
      4 O3           2.3130    -0.9120    -0.9690 o          1 652      -0.616800
      5 C24          2.2530     1.5860    -0.6290 ca         1 652      -0.294500
      6 C26          2.4200     1.7670    -1.9860 ca         1 652      -0.020000
      7 C23          2.4260     2.6490     0.2390 ca         1 652      -0.028000
      8 C22          2.7700     3.8970    -0.2470 ca         1 652      -0.146000
      9 C21          2.9450     4.0880    -1.6030 ca         1 652      -0.067000
     10 C20          2.7680     3.0230    -2.4820 cp         1 652      -0.059000
     11 C19          2.9480     3.2230    -3.9410 cp         1 652      -0.029000
     12 C28          3.2960     4.4790    -4.4360 ca         1 652      -0.117000
     13 C27          3.4630     4.6630    -5.7920 ca         1 652      -0.116000
     14 C18          2.7750     2.1550    -4.8190 ca         1 652      -0.117000
     15 C17          2.9490     2.3420    -6.1740 ca         1 652      -0.116000
     16 C16          3.2840     3.5980    -6.6650 ca         1 652      -0.006200
     17 N2           3.4590     3.7870    -8.0430 na         1 652      -0.115000
     18 C15          4.4090     3.1900    -8.8330 cc         1 652      -0.229600
     19 C11          4.2190     3.6510   -10.0840 cd         1 652       0.323600
     20 C12          5.0290     3.2710   -11.2970 c3         1 652       0.137500
     21 C13          4.4920     4.0140   -12.5210 c3         1 652      -0.113600
     22 C14          6.4940     3.6520   -11.0720 c3         1 652      -0.113600
     23 O1           4.9310     1.8620   -11.5130 oh         1 652      -0.603800
     24 N1           3.1850     4.5040   -10.0640 nd         1 652      -0.691000
     25 C10          2.7180     4.5890    -8.8490 cc         1 652       0.423800
     26 C7           1.5530     5.4410    -8.4120 c3         1 652      -0.022000
     27 C8           1.0520     4.9580    -7.0490 c3         1 652      -0.097100
     28 C9           2.0000     6.9000    -8.3040 c3         1 652      -0.097100
     29 C6           0.4420     5.3290    -9.4240 ca         1 652      -0.068300
     30 C4           0.5930     4.5130   -10.5290 ca         1 652      -0.102000
     31 C3          -0.4260     4.4110   -11.4570 ca         1 652      -0.129000
     32 C2          -1.5980     5.1240   -11.2810 ca         1 652      -0.123000
     33 C1          -1.7500     5.9410   -10.1760 ca         1 652      -0.127000
     34 C5          -0.7320     6.0390    -9.2430 ca         1 652       0.030400
     35 Cl1         -0.9240     7.0590    -7.8520 cl         1 652      -0.119400
     36 H1          -0.3610     0.0320    -1.0210 h1         1 652       0.099033
     37 H2          -0.3610     0.8680     0.5380 h1         1 652       0.099033
     38 H3          -0.3610    -0.9000     0.4830 h1         1 652       0.099033
     39 H4           2.2820     0.9350    -2.6650 ha         1 652       0.154000
     40 H5           2.2900     2.5040     1.3040 ha         1 652       0.153000
     41 H6           2.9060     4.7260     0.4380 ha         1 652       0.141000
     42 H7           3.2150     5.0660    -1.9820 ha         1 652       0.138000
     43 H8           3.4350     5.3110    -3.7550 ha         1 652       0.143000
     44 H9           3.7280     5.6400    -6.1770 ha         1 652       0.151000
     45 H10          2.5140     1.1760    -4.4360 ha         1 652       0.143000
     46 H11          2.8120     1.5130    -6.8570 ha         1 652       0.151000
     47 H12          5.2680     2.6300    -8.4840 h4         1 652       0.185000
     48 H13          3.4800     3.6860   -12.7280 hc         1 652       0.044700
     49 H14          4.4940     5.0790   -12.3260 hc         1 652       0.044700
     50 H15          5.1220     3.8020   -13.3770 hc         1 652       0.044700
     51 H16          7.0340     3.5790   -12.0080 hc         1 652       0.044700
     52 H17          6.5500     4.6680   -10.7000 hc         1 652       0.044700
     53 H18          6.9350     2.9780   -10.3470 hc         1 652       0.044700
     54 H19          5.3930     1.6320   -12.3020 ho         1 652       0.404000
     55 H20          1.1550     3.8820    -6.9870 hc         1 652       0.049533
     56 H21          1.6360     5.4230    -6.2650 hc         1 652       0.049533
     57 H22          0.0090     5.2280    -6.9320 hc         1 652       0.049533
     58 H23          3.0730     6.9400    -8.1590 hc         1 652       0.049533
     59 H24          1.7390     7.4270    -9.2140 hc         1 652       0.049533
     60 H25          1.5040     7.3680    -7.4610 hc         1 652       0.049533
     61 H26          1.5100     3.9540   -10.6680 ha         1 652       0.184000
     62 H27         -0.3070     3.7710   -12.3230 ha         1 652       0.134000
     63 H28         -2.3950     5.0460   -12.0100 ha         1 652       0.133000
     64 H29         -2.6680     6.4980   -10.0370 ha         1 652       0.141000
@<TRIPOS>BOND
     1    23    20 1   
     2    22    20 1   
     3    20    21 1   
     4    20    19 1   
     5    18    19 2   
     6    18    17 1   
     7    19    24 1   
     8     4     2 2   
     9     1     2 1   
    10    17    16 1   
    11    17    25 1   
    12    24    25 2   
    13    15    16 ar  
    14    15    14 ar  
    15    16    13 ar  
    16    25    26 1   
    17     2     3 2   
    18     2     5 1   
    19    14    11 ar  
    20    13    12 ar  
    21     6     5 ar  
    22     6    10 ar  
    23    11    12 ar  
    24    11    10 1   
    25     5     7 ar  
    26    10     9 ar  
    27    35    34 1   
    28    26    27 1   
    29    26    28 1   
    30    26    29 1   
    31     7     8 ar  
    32    29    34 ar  
    33    29    30 ar  
    34    34    33 ar  
    35     9     8 ar  
    36    30    31 ar  
    37    33    32 ar  
    38    31    32 ar  
    39     1    36 1   
    40     1    37 1   
    41     1    38 1   
    42     6    39 1   
    43     7    40 1   
    44     8    41 1   
    45     9    42 1   
    46    12    43 1   
    47    13    44 1   
    48    14    45 1   
    49    15    46 1   
    50    18    47 1   
    51    21    48 1   
    52    21    49 1   
    53    21    50 1   
    54    22    51 1   
    55    22    52 1   
    56    22    53 1   
    57    23    54 1   
    58    27    55 1   
    59    27    56 1   
    60    27    57 1   
    61    28    58 1   
    62    28    59 1   
    63    28    60 1   
    64    30    61 1   
    65    31    62 1   
    66    32    63 1   
    67    33    64 1   
@<TRIPOS>SUBSTRUCTURE
     1 652         1 TEMP              0 ****  ****    0 ROOT
