@<TRIPOS>MOLECULE
652
   64    67     1     0     0
SMALL
bcc


@<TRIPOS>ATOM
      1 C25        -0.8190    0.6620   -0.4860 c3        1 652     -0.358300
      2 S1          0.7030   -0.0620   -0.6570 sy        1 652      1.397300
      3 O2          1.1010   -0.5740    0.5850 o         1 652     -0.656300
      4 O3          0.6640   -0.9450   -1.7450 o         1 652     -0.656300
      5 C24         1.6190    1.2890   -1.0440 ca        1 652     -0.383500
      6 C26         1.8580    1.6310   -2.3800 ca        1 652     -0.009000
      7 C23         2.1870    2.0770   -0.0350 ca        1 652     -0.018000
      8 C22         2.9620    3.1880   -0.3530 ca        1 652     -0.154000
      9 C21         3.1860    3.5260   -1.6860 ca        1 652     -0.057000
     10 C20         2.6370    2.7450   -2.7150 cp        1 652     -0.060000
     11 C19         2.8770    3.0880   -4.1150 cp        1 652     -0.041000
     12 C28         4.1380    3.5380   -4.5310 ca        1 652     -0.109000
     13 C27         4.3740    3.8690   -5.8590 ca        1 652     -0.129500
     14 C18         1.8540    2.9700   -5.0640 ca        1 652     -0.109000
     15 C17         2.0760    3.2950   -6.3980 ca        1 652     -0.129500
     16 C16         3.3400    3.7570   -6.8160 ca        1 652      0.010800
     17 N2          3.6080    4.0570   -8.1690 na        1 652     -0.145000
     18 C15         4.7120    3.5250   -8.8490 cc        1 652     -0.206600
     19 C11         4.7060    4.0960  -10.1310 cd        1 652      0.296600
     20 C12         5.6840    3.8290  -11.2320 c3        1 652      0.140500
     21 C13         4.9820    3.2080  -12.4370 c3        1 652     -0.116600
     22 C14         6.4000    5.1140  -11.6410 c3        1 652     -0.116600
     23 O1          6.6340    2.8990  -10.6950 oh        1 652     -0.607800
     24 N1          3.6300    4.9810  -10.2510 nd        1 652     -0.661000
     25 C10         2.9720    4.9600   -9.0640 cc        1 652      0.416800
     26 C7          1.7670    5.8220   -8.7330 c3        1 652     -0.011000
     27 C8          2.0210    6.4620   -7.3680 c3        1 652     -0.090600
     28 C9          1.6510    6.9390   -9.7770 c3        1 652     -0.090600
     29 C6          0.4950    5.0050   -8.7850 ca        1 652     -0.064300
     30 C4          0.5090    3.7600   -9.4390 ca        1 652     -0.121000
     31 C3         -0.6310    2.9690   -9.5400 ca        1 652     -0.131000
     32 C2         -1.8360    3.4080   -8.9930 ca        1 652     -0.123000
     33 C1         -1.8870    4.6450   -8.3620 ca        1 652     -0.131000
     34 C5         -0.7370    5.4430   -8.2680 ca        1 652      0.023400
     35 CL1        -0.9610    6.9590   -7.5190 cl        1 652     -0.098400
     36 H1         -1.5870   -0.0880   -0.1700 h1        1 652      0.113700
     37 H2         -1.1970    1.1160   -1.4350 h1        1 652      0.113700
     38 H3         -0.8370    1.4710    0.2840 h1        1 652      0.113700
     39 H4          1.4410    0.9940   -3.1810 ha        1 652      0.161000
     40 H5          2.0280    1.7980    1.0220 ha        1 652      0.156000
     41 H6          3.4020    3.8000    0.4500 ha        1 652      0.145000
     42 H7          3.7940    4.4100   -1.9360 ha        1 652      0.142000
     43 H8          4.9570    3.6230   -3.8000 ha        1 652      0.141500
     44 H9          5.3760    4.2130   -6.1640 ha        1 652      0.154500
     45 H10         0.8580    2.6180   -4.7550 ha        1 652      0.141500
     46 H11         1.2530    3.1960   -7.1270 ha        1 652      0.154500
     47 H12         5.3900    2.7970   -8.4030 h4        1 652      0.196000
     48 H13         4.1980    3.9020  -12.8210 hc        1 652      0.046700
     49 H14         5.7230    3.0110  -13.2480 hc        1 652      0.046700
     50 H15         4.5050    2.2430  -12.1450 hc        1 652      0.046700
     51 H16         5.6600    5.8610  -12.0130 hc        1 652      0.046700
     52 H17         7.1360    4.8960  -12.4520 hc        1 652      0.046700
     53 H18         6.9450    5.5420  -10.7680 hc        1 652      0.046700
     54 H19         7.2620    2.7170  -11.4030 ho        1 652      0.403000
     55 H20         3.1120    6.6610   -7.2320 hc        1 652      0.049700
     56 H21         1.6710    5.7940   -6.5460 hc        1 652      0.049700
     57 H22         1.4930    7.4420   -7.2860 hc        1 652      0.049700
     58 H23         0.7910    7.6030   -9.5200 hc        1 652      0.049700
     59 H24         2.5860    7.5480   -9.7890 hc        1 652      0.049700
     60 H25         1.4810    6.5140  -10.7950 hc        1 652      0.049700
     61 H26         1.4370    3.3870   -9.9030 ha        1 652      0.155000
     62 H27        -0.5800    2.0000  -10.0580 ha        1 652      0.140000
     63 H28        -2.7410    2.7870   -9.0650 ha        1 652      0.139000
     64 H29        -2.8380    5.0070   -7.9410 ha        1 652      0.147000
@<TRIPOS>BOND
     1    1    2 1   
     2    1   36 1   
     3    1   37 1   
     4    1   38 1   
     5    2    3 2   
     6    2    4 2   
     7    2    5 1   
     8    5    6 ar  
     9    5    7 ar  
    10    6   10 ar  
    11    6   39 1   
    12    7    8 ar  
    13    7   40 1   
    14    8    9 ar  
    15    8   41 1   
    16    9   10 ar  
    17    9   42 1   
    18   10   11 1   
    19   11   12 ar  
    20   11   14 ar  
    21   12   13 ar  
    22   12   43 1   
    23   13   16 ar  
    24   13   44 1   
    25   14   15 ar  
    26   14   45 1   
    27   15   16 ar  
    28   15   46 1   
    29   16   17 1   
    30   17   18 1   
    31   17   25 1   
    32   18   19 2   
    33   18   47 1   
    34   19   20 1   
    35   19   24 1   
    36   20   21 1   
    37   20   22 1   
    38   20   23 1   
    39   21   48 1   
    40   21   49 1   
    41   21   50 1   
    42   22   51 1   
    43   22   52 1   
    44   22   53 1   
    45   23   54 1   
    46   24   25 2   
    47   25   26 1   
    48   26   27 1   
    49   26   28 1   
    50   26   29 1   
    51   27   55 1   
    52   27   56 1   
    53   27   57 1   
    54   28   58 1   
    55   28   59 1   
    56   28   60 1   
    57   29   30 ar  
    58   29   34 ar  
    59   30   31 ar  
    60   30   61 1   
    61   31   32 ar  
    62   31   62 1   
    63   32   33 ar  
    64   32   63 1   
    65   33   34 ar  
    66   33   64 1   
    67   34   35 1   
@<TRIPOS>SUBSTRUCTURE
     1 652         1 TEMP              0 ****  ****    0 ROOT
