@<TRIPOS>MOLECULE
653
   50    53     1     0     0
SMALL
bcc


@<TRIPOS>ATOM
      1 C1          0.0160    0.0610   -0.1290 ca        1 653     -0.297900
      2 C2          1.1630   -0.7630   -0.0990 ca        1 653     -0.098000
      3 C3          1.7300   -1.1650    1.0990 ca        1 653     -0.127000
      4 C4          1.1400   -0.7200    2.2870 ca        1 653      0.025000
      5 C5         -0.0570    0.1370    2.2700 ca        1 653     -0.047000
      6 C6         -0.6040    0.5120    1.0490 ca        1 653     -0.057000
      7 C7         -0.5450    0.4600   -1.4310 ce        1 653      0.531400
      8 N1         -1.8930    0.4780   -1.5910 nh        1 653     -0.488600
      9 N2          0.2980    0.8010   -2.4390 nh        1 653     -0.472700
     10 N3          1.4470   -0.9060    3.6170 na        1 653     -0.232600
     11 N4         -0.4350    0.4350    3.5830 nc        1 653     -0.360600
     12 C8          0.4790   -0.1960    4.3860 cc        1 653      0.297500
     13 C1'         0.5140   -0.1620    5.8310 cd        1 653     -0.312200
     14 C2'        -0.4220    0.6320    6.5020 cd        1 653      0.041000
     15 C3'        -0.4210    0.7450    7.8830 cc        1 653     -0.314200
     16 CV'        -1.4220    1.5670    8.5930 c3        1 653     -0.001200
     17 CW'        -2.4350    0.6050    9.2260 c3        1 653      0.086800
     18 NX'        -3.4200    1.2980   10.1150 n4        1 653     -0.841600
     19 C4'         0.5790    0.0710    8.6320 cc        1 653     -0.048000
     20 C5'         1.5100   -0.7320    8.0330 cd        1 653     -0.164400
     21 C6'         1.5050   -0.9260    6.5780 c         1 653      0.597500
     22 O6'         2.3150   -1.7140    6.0250 o         1 653     -0.679100
     23 C1B         2.5260   -1.3940    8.8480 ca        1 653     -0.027800
     24 C2B         2.9020   -2.7230    8.6030 ca        1 653     -0.119000
     25 C3B         3.8490   -3.3480    9.4120 ca        1 653     -0.136500
     26 C4B         4.4370   -2.6570   10.4710 ca        1 653     -0.132000
     27 C5B         4.0790   -1.3310   10.7150 ca        1 653     -0.136500
     28 C6B         3.1310   -0.7030    9.9100 ca        1 653     -0.119000
     29 HC2         1.6070   -1.1300   -1.0370 ha        1 653      0.131000
     30 HC3         2.6170   -1.8160    1.1140 ha        1 653      0.161000
     31 HC6        -1.4800    1.1770    1.0260 ha        1 653      0.144000
     32 HH11       -2.4640    0.1940   -0.8240 hn        1 653      0.317950
     33 HH12       -2.3380    0.7770   -2.4280 hn        1 653      0.317950
     34 HH21        1.2790    0.7980   -2.2570 hn        1 653      0.317950
     35 HH22       -0.0130    1.0390   -3.3520 hn        1 653      0.317950
     36 HN3         2.1850   -1.4510    4.0130 hn        1 653      0.360700
     37 HC2'       -1.1780    1.1900    5.9230 ha        1 653      0.124000
     38 H31A       -0.9280    2.1800    9.3940 hc        1 653      0.049700
     39 H31B       -1.9450    2.2650    7.8890 hc        1 653      0.049700
     40 H32A       -1.8870   -0.1600    9.8490 hx        1 653      0.112700
     41 H32B       -3.0140    0.0730    8.4190 hx        1 653      0.112700
     42 H33A       -4.0720    0.6240   10.5210 hn        1 653      0.449800
     43 H33B       -3.9440    1.9930    9.5780 hn        1 653      0.449800
     44 H33C       -2.9230    1.7790   10.8700 hn        1 653      0.449800
     45 HC4'        0.5950    0.2110    9.7250 ha        1 653      0.104000
     46 H2B         2.4600   -3.2610    7.7500 ha        1 653      0.137000
     47 H3B         4.1370   -4.3900    9.2090 ha        1 653      0.128000
     48 H4B         5.1860   -3.1520   11.1060 ha        1 653      0.129000
     49 H5B         4.5500   -0.7780   11.5400 ha        1 653      0.128000
     50 H6B         2.8690    0.3480   10.0970 ha        1 653      0.137000
@<TRIPOS>BOND
     1    1    2 ar  
     2    1    6 ar  
     3    1    7 1   
     4    2    3 ar  
     5    2   29 1   
     6    3    4 ar  
     7    3   30 1   
     8    4    5 ar  
     9    4   10 2   
    10    5    6 ar  
    11    5   11 2   
    12    6   31 1   
    13    7    8 2   
    14    7    9 1   
    15    8   32 1   
    16    8   33 1   
    17    9   34 1   
    18    9   35 1   
    19   10   12 1   
    20   10   36 1   
    21   11   12 1   
    22   12   13 2   
    23   13   14 1   
    24   13   21 1   
    25   14   15 2   
    26   14   37 1   
    27   15   16 1   
    28   15   19 1   
    29   16   17 1   
    30   16   38 1   
    31   16   39 1   
    32   17   18 1   
    33   17   40 1   
    34   17   41 1   
    35   18   42 1   
    36   18   43 1   
    37   18   44 1   
    38   19   20 2   
    39   19   45 1   
    40   20   21 1   
    41   20   23 1   
    42   21   22 2   
    43   23   24 ar  
    44   23   28 ar  
    45   24   25 ar  
    46   24   46 1   
    47   25   26 ar  
    48   25   47 1   
    49   26   27 ar  
    50   26   48 1   
    51   27   28 ar  
    52   27   49 1   
    53   28   50 1   
@<TRIPOS>SUBSTRUCTURE
     1 653         1 TEMP              0 ****  ****    0 ROOT
