@<TRIPOS>MOLECULE
molecule
   51    54     1     0     0
SMALL
bcc


@<TRIPOS>ATOM
      1 C1           0.0000     0.0000     0.0000 ca         1 653      -0.167900
      2 C2           1.4000     0.0000     0.0000 ca         1 653      -0.055000
      3 C3           2.0930     0.0000     1.1760 ca         1 653      -0.105000
      4 C4           1.4120     0.0000     2.3880 ca         1 653       0.059000
      5 C5           0.0040     0.0010     2.4070 ca         1 653       0.016000
      6 C6          -0.7000     0.0070     1.2020 ca         1 653      -0.148000
      7 C7          -0.7370    -0.0010    -1.2820 ce         1 653       0.265800
      8 N1          -2.0690    -0.0000    -1.2840 nz         1 653      -0.723600
      9 N2          -0.0680    -0.0020    -2.4340 nv         1 653      -0.462100
     10 N3           1.8140     0.0010     3.7070 na         1 653      -0.168600
     11 N4          -0.3790     0.0020     3.7080 nc         1 653      -0.359600
     12 C8           0.6810     0.0020     4.4770 cc         1 653       0.286500
     13 C1'          0.6590     0.0020     5.9560 cd         1 653      -0.134000
     14 C2'         -0.2800     0.7740     6.6420 cd         1 653      -0.056000
     15 C3'         -0.3010     0.7750     8.0210 cc         1 653      -0.154200
     16 CV'         -1.3170     1.6120     8.7540 c3         1 653      -0.046200
     17 CW'         -2.5840     0.7870     8.9880 c3         1 653       0.090800
     18 NX'         -3.5750     1.6030     9.7030 nz         1 653      -0.811600
     19 C4'          0.6040     0.0120     8.7360 cc         1 653      -0.095000
     20 C5'          1.5470    -0.7660     8.0680 cd         1 653      -0.030200
     21 C6'          1.5760    -0.7770     6.6710 c          1 653       0.462100
     22 O6'          2.4910    -1.5320     6.0120 o          1 653      -0.630100
     23 C1B          2.5160    -1.5830     8.8370 ca         1 653      -0.069800
     24 C2B          2.6960    -2.9300     8.5290 ca         1 653      -0.096500
     25 C3B          3.5980    -3.6860     9.2480 ca         1 653      -0.129000
     26 C4B          4.3250    -3.1090    10.2750 ca         1 653      -0.100000
     27 C5B          4.1510    -1.7730    10.5860 ca         1 653      -0.129000
     28 C6B          3.2550    -1.0050     9.8690 ca         1 653      -0.096500
     29 HC2          1.9380    -0.0050    -0.9400 ha         1 653       0.147000
     30 HC3          3.1760    -0.0000     1.1660 ha         1 653       0.176000
     31 HC6         -1.7830     0.0070     1.2030 ha         1 653       0.126000
     32 HH11        -2.4040    -0.8150    -0.8100 hn         1 653       0.473467
     33 HH12        -2.4020    -0.0030    -2.2280 hn         1 653       0.473467
     34 HH21        -0.5670    -0.0020    -3.3020 hn         1 653       0.328200
     35 HH22         0.9320    -0.0020    -2.4320 hn         1 653       0.328200
     36 HN3          2.7580     0.0010     4.0390 hn         1 653       0.358700
     37 HC2'        -0.9850     1.3840     6.0900 ha         1 653       0.133000
     38 H31A        -0.9080     1.9250     9.7070 hc         1 653       0.067200
     39 H31B        -1.5600     2.4860     8.1610 hc         1 653       0.067200
     40 H32A        -2.9930     0.4750     8.0350 hx         1 653       0.115700
     41 H32B        -2.3410    -0.0870     9.5800 hx         1 653       0.115700
     42 H33A        -3.1970     1.8910    10.5830 hn         1 653       0.456467
     43 H33B        -4.4030     1.0630     9.8560 hn         1 653       0.456467
     44 H33C        -3.7990     2.4100     9.1550 hn         1 653       0.456467
     45 HC4'         0.5800     0.0200     9.8190 ha         1 653       0.140000
     46 H2B          2.1270    -3.3830     7.7260 ha         1 653       0.134500
     47 H3B          3.7390    -4.7340     9.0090 ha         1 653       0.141500
     48 H4B          5.0310    -3.7060    10.8390 ha         1 653       0.143000
     49 H5B          4.7240    -1.3260    11.3890 ha         1 653       0.141500
     50 H6B          3.1200     0.0420    10.1130 ha         1 653       0.134500
     51 H13         -2.4030     0.8250    -0.8260 hn         1 653       0.473467
@<TRIPOS>BOND
     1     1     2 ar
     2     1     6 ar
     3     1     7 1
     4     2     3 ar
     5     2    29 1
     6     3     4 ar
     7     3    30 1
     8     4     5 ar
     9     4    10 2
    10     5     6 ar
    11     5    11 2
    12     6    31 1
    13     7     8 1
    14     7     9 2
    15     8    32 1
    16     8    33 1
    17     9    34 1
    18     9    35 1
    19    10    12 1
    20    10    36 1
    21    11    12 1
    22    12    13 2
    23    13    14 1
    24    13    21 1
    25    14    15 2
    26    14    37 1
    27    15    16 1
    28    15    19 1
    29    16    17 1
    30    16    38 1
    31    16    39 1
    32    17    18 1
    33    17    40 1
    34    17    41 1
    35    18    42 1
    36    18    43 1
    37    18    44 1
    38    19    20 2
    39    19    45 1
    40    20    21 1
    41    20    23 1
    42    21    22 2
    43    23    24 ar
    44    23    28 ar
    45    24    25 ar
    46    24    46 1
    47    25    26 ar
    48    25    47 1
    49    26    27 ar
    50    26    48 1
    51    27    28 ar
    52    27    49 1
    53    28    50 1
    54    51     8 1
@<TRIPOS>SUBSTRUCTURE
     1 653         1 TEMP              0 ****  ****    0 ROOT
