@<TRIPOS>MOLECULE
molecule
   32    34     1     0     0
SMALL
bcc


@<TRIPOS>ATOM
      1 S1T          0.0000     0.0000     0.0000 ss         1 654      -0.231800
      2 C2T          1.7840     0.0000     0.0000 cc         1 654      -0.003600
      3 C3T          2.0660     0.0000     1.3390 cd         1 654      -0.162000
      4 C4T          1.0200     0.0080     2.2370 cd         1 654      -0.169000
      5 C5T         -0.2540     0.0060     1.7670 cc         1 654      -0.046100
      6 C1I          2.7170    -0.0040    -1.1490 cc         1 654       0.405800
      7 N2I          4.0640    -0.0050    -1.0810 nc         1 654      -0.684000
      8 C3I          2.3700    -0.0040    -2.4640 cd         1 654      -0.252600
      9 N4I          3.5370    -0.0130    -3.1760 na         1 654      -0.179900
     10 C5I          4.5540    -0.0090    -2.2890 cd         1 654       0.403400
     11 C1           3.6610    -0.0190    -4.6360 c3         1 654       0.092600
     12 C2           3.7030    -1.4410    -5.1310 ca         1 654      -0.130300
     13 C3           2.5300    -2.0930    -5.4600 ca         1 654      -0.103000
     14 C4           2.5680    -3.3980    -5.9140 ca         1 654      -0.126500
     15 C5           4.9140    -2.0940    -5.2570 ca         1 654      -0.103000
     16 C6           4.9530    -3.4000    -5.7070 ca         1 654      -0.126500
     17 C7           3.7790    -4.0500    -6.0410 ca         1 654      -0.067300
     18 C8           3.8220    -5.4720    -6.5370 c3         1 654      -0.050800
     19 H3TC         3.0920     0.0000     1.6870 ha         1 654       0.159000
     20 H4TC         1.2120     0.0100     3.3030 ha         1 654       0.141000
     21 H5TC        -1.1850     0.0100     2.3220 h4         1 654       0.185000
     22 H3IC         1.3650    -0.0040    -2.8690 h4         1 654       0.179000
     23 H5IC         5.6080    -0.0120    -2.5400 h5         1 654       0.064100
     24 HC11         2.8110     0.4910    -5.0730 h1         1 654       0.068200
     25 HC12         4.5740     0.4900    -4.9230 h1         1 654       0.068200
     26 HC3          1.5800    -1.5810    -5.3600 ha         1 654       0.130000
     27 HC4          1.6480    -3.9080    -6.1740 ha         1 654       0.135000
     28 HC5          5.8340    -1.5840    -4.9950 ha         1 654       0.130000
     29 HC6          5.9030    -3.9110    -5.8060 ha         1 654       0.135000
     30 HC81         2.8260    -5.8970    -6.5010 hc         1 654       0.046700
     31 HC82         4.1850    -5.4890    -7.5570 hc         1 654       0.046700
     32 HC83         4.4850    -6.0540    -5.9080 hc         1 654       0.046700
@<TRIPOS>BOND
     1     1     2 1
     2     1     5 1
     3     2     3 2
     4     2     6 1
     5     3     4 1
     6     3    19 1
     7     4     5 2
     8     4    20 1
     9     5    21 1
    10     6     7 1
    11     6     8 2
    12     7    10 2
    13     8     9 1
    14     8    22 1
    15     9    10 1
    16     9    11 1
    17    10    23 1
    18    11    12 1
    19    11    24 1
    20    11    25 1
    21    12    13 ar
    22    12    15 ar
    23    13    14 ar
    24    13    26 1
    25    14    17 ar
    26    14    27 1
    27    15    16 ar
    28    15    28 1
    29    16    17 ar
    30    16    29 1
    31    17    18 1
    32    18    30 1
    33    18    31 1
    34    18    32 1
@<TRIPOS>SUBSTRUCTURE
     1 654         1 TEMP              0 ****  ****    0 ROOT
