@<TRIPOS>MOLECULE
654
   32    34     1     0     0
SMALL
bcc


@<TRIPOS>ATOM
      1 S1T        -0.0160    0.3960   -0.2650 ss        1 654     -0.021800
      2 C2T         1.6250    0.1270    0.0510 cc        1 654     -0.118600
      3 C3T         1.8570    0.0520    1.4140 cd        1 654     -0.131000
      4 C4T         0.6540    0.2210    2.1670 cd        1 654     -0.156000
      5 C5T        -0.4370    0.4170    1.3510 cc        1 654     -0.164100
      6 C1I         2.6070   -0.0010   -0.9820 cc        1 654      0.384800
      7 N2I         3.9810   -0.1950   -0.7430 nc        1 654     -0.652000
      8 C3I         2.3750    0.0490   -2.3770 cd        1 654     -0.252600
      9 N4I         3.6200   -0.1010   -2.9900 na        1 654     -0.202900
     10 C5I         4.5590   -0.2620   -1.9560 cd        1 654      0.401400
     11 C1          3.8720   -0.1720   -4.4000 c3        1 654      0.089600
     12 C2          3.8680   -1.5550   -4.9870 ca        1 654     -0.126300
     13 C3          2.8070   -2.4340   -4.7520 ca        1 654     -0.108500
     14 C4          2.7990   -3.6960   -5.3380 ca        1 654     -0.130000
     15 C5          4.9220   -1.9540   -5.8150 ca        1 654     -0.108500
     16 C6          4.9100   -3.2150   -6.4050 ca        1 654     -0.130000
     17 C7          3.8500   -4.0990   -6.1710 ca        1 654     -0.064300
     18 C8          3.8470   -5.4480   -6.7810 c3        1 654     -0.057800
     19 H3TC        2.8370   -0.1160    1.8680 ha        1 654      0.169000
     20 H4TC        0.6280    0.1940    3.2590 ha        1 654      0.152000
     21 H5TC       -1.4610    0.5690    1.6860 h4        1 654      0.168000
     22 H3IC        1.4570    0.1890   -2.9430 h4        1 654      0.179000
     23 H5IC        5.6270   -0.4110   -2.1480 h5        1 654      0.062100
     24 HC11        4.8720    0.3150   -4.5940 h1        1 654      0.067700
     25 HC12        3.0780    0.4360   -4.9260 h1        1 654      0.067700
     26 HC3         1.9770   -2.1290   -4.0950 ha        1 654      0.135000
     27 HC4         1.9610   -4.3840   -5.1460 ha        1 654      0.136000
     28 HC5         5.7640   -1.2720   -6.0050 ha        1 654      0.135000
     29 HC6         5.7420   -3.5210   -7.0580 ha        1 654      0.136000
     30 HC81        4.3120   -6.1840   -6.0780 hc        1 654      0.047367
     31 HC82        2.8040   -5.7850   -7.0000 hc        1 654      0.047367
     32 HC83        4.4310   -5.4590   -7.7350 hc        1 654      0.047367
@<TRIPOS>BOND
     1    1    2 1   
     2    1    5 1   
     3    2    3 2   
     4    2    6 1   
     5    3    4 1   
     6    3   19 1   
     7    4    5 2   
     8    4   20 1   
     9    5   21 1   
    10    6    7 1   
    11    6    8 2   
    12    7   10 2   
    13    8    9 1   
    14    8   22 1   
    15    9   10 1   
    16    9   11 1   
    17   10   23 1   
    18   11   12 1   
    19   11   24 1   
    20   11   25 1   
    21   12   13 ar  
    22   12   15 ar  
    23   13   14 ar  
    24   13   26 1   
    25   14   17 ar  
    26   14   27 1   
    27   15   16 ar  
    28   15   28 1   
    29   16   17 ar  
    30   16   29 1   
    31   17   18 1   
    32   18   30 1   
    33   18   31 1   
    34   18   32 1   
@<TRIPOS>SUBSTRUCTURE
     1 654         1 TEMP              0 ****  ****    0 ROOT
