@<TRIPOS>MOLECULE
655
   45    48     1     0     0
SMALL
bcc


@<TRIPOS>ATOM
      1 C1         -0.1050    0.0200   -0.0030 ca        1 655     -0.285900
      2 C2          1.2730    0.3050   -0.0750 ca        1 655     -0.111000
      3 C3          2.0510    0.4010    1.0720 ca        1 655     -0.154000
      4 C4          1.4320    0.2100    2.3070 ca        1 655      0.024000
      5 C5         -0.0160   -0.0800    2.4020 ca        1 655     -0.010000
      6 C6         -0.7600   -0.1690    1.2320 ca        1 655     -0.109000
      7 C7         -0.8880   -0.1010   -1.2370 ce        1 655      0.529400
      8 N1         -1.8750   -1.0330   -1.3080 nh        1 655     -0.500100
      9 N2         -0.6090    0.7150   -2.2910 nh        1 655     -0.484200
     10 N3          1.8860    0.2320    3.6070 na        1 655     -0.281600
     11 N4         -0.3900   -0.2140    3.7310 nc        1 655     -0.321600
     12 C8          0.7600   -0.0460    4.4730 cc        1 655      0.322500
     13 C1'         0.9190   -0.1210    5.8790 cd        1 655     -0.341200
     14 C2'         2.0300    0.5060    6.5130 cd        1 655     -0.065000
     15 C3'         2.2080    0.4820    7.8640 cc        1 655     -0.215000
     16 C4'         1.2650   -0.1880    8.6980 cc        1 655     -0.166000
     17 C5'         0.1850   -0.8000    8.1410 cd        1 655     -0.015100
     18 O5'        -0.7740   -1.5000    8.8520 os        1 655     -0.307900
     19 C6'        -0.0640   -0.8370    6.6760 c         1 655      0.600500
     20 O6'        -1.0300   -1.4760    6.2180 o         1 655     -0.592100
     21 C1B        -2.4300   -1.4160   10.5530 c3        1 655     -0.095400
     22 C2B        -0.9680   -1.0970   10.2140 c3        1 655      0.138100
     23 C3B        -0.0910   -1.9230   11.1620 c3        1 655     -0.095400
     24 C4B        -0.9980   -2.4610   12.2570 c3        1 655     -0.076400
     25 C5B        -2.4320   -2.3410   11.7600 c3        1 655     -0.076400
     26 HC2         1.7700    0.4170   -1.0500 ha        1 655      0.117000
     27 HC3         3.1270    0.6110    0.9990 ha        1 655      0.142000
     28 HC6        -1.8420   -0.3480    1.2990 ha        1 655      0.144000
     29 HH11       -2.0340   -1.6110   -0.5100 hn        1 655      0.312450
     30 HH12       -2.4900   -1.1140   -2.0830 hn        1 655      0.312450
     31 HH21        0.1070    1.3990   -2.1800 hn        1 655      0.312450
     32 HH22       -1.0710    0.6470   -3.1660 hn        1 655      0.312450
     33 HN3         2.8150    0.3680    3.9040 hn        1 655      0.308700
     34 HC2'        2.7580    1.0650    5.9040 ha        1 655      0.085000
     35 HC3'        3.0640    0.9790    8.3370 ha        1 655      0.113000
     36 HC4'        1.4340   -0.1900    9.7840 ha        1 655      0.118000
     37 H1A        -2.9800   -0.4690   10.7740 hc        1 655      0.054700
     38 H1B        -2.9250   -1.9010    9.6730 hc        1 655      0.054700
     39 H2A        -0.7610   -0.0000   10.3260 h1        1 655      0.047700
     40 H3A         0.3840   -2.7620   10.5920 hc        1 655      0.054700
     41 H3B         0.7280   -1.2970   11.5930 hc        1 655      0.054700
     42 H4A        -0.8640   -1.8670   13.1960 hc        1 655      0.036200
     43 H4B        -0.7460   -3.5230   12.4960 hc        1 655      0.036200
     44 H5A        -2.8250   -3.3490   11.4710 hc        1 655      0.036200
     45 H5B        -3.0980   -1.9440   12.5660 hc        1 655      0.036200
@<TRIPOS>BOND
     1    1    2 ar  
     2    1    6 ar  
     3    1    7 1   
     4    2    3 ar  
     5    2   26 1   
     6    3    4 ar  
     7    3   27 1   
     8    4    5 ar  
     9    4   10 2   
    10    5    6 ar  
    11    5   11 2   
    12    6   28 1   
    13    7    8 2   
    14    7    9 1   
    15    8   29 1   
    16    8   30 1   
    17    9   31 1   
    18    9   32 1   
    19   10   12 1   
    20   10   33 1   
    21   11   12 1   
    22   12   13 2   
    23   13   14 1   
    24   13   19 1   
    25   14   15 2   
    26   14   34 1   
    27   15   16 1   
    28   15   35 1   
    29   16   17 2   
    30   16   36 1   
    31   17   18 1   
    32   17   19 1   
    33   18   22 1   
    34   19   20 2   
    35   21   22 1   
    36   21   25 1   
    37   21   37 1   
    38   21   38 1   
    39   22   23 1   
    40   22   39 1   
    41   23   24 1   
    42   23   40 1   
    43   23   41 1   
    44   24   25 1   
    45   24   42 1   
    46   24   43 1   
    47   25   44 1   
    48   25   45 1   
@<TRIPOS>SUBSTRUCTURE
     1 655         1 TEMP              0 ****  ****    0 ROOT
