@<TRIPOS>MOLECULE
molecule
   46    49     1     0     0
SMALL
bcc


@<TRIPOS>ATOM
      1 C1           0.0000     0.0000     0.0000 ca         1 655      -0.098900
      2 C2           1.4000     0.0000     0.0000 ca         1 655      -0.062000
      3 C3           2.0920     0.0000     1.1770 ca         1 655      -0.120000
      4 C4           1.4110     0.0010     2.3880 ca         1 655       0.010000
      5 C5           0.0030     0.0010     2.4070 ca         1 655       0.017000
      6 C6          -0.7000     0.0070     1.2020 ca         1 655      -0.197000
      7 C7          -0.7360     0.0010    -1.2810 ce         1 655       0.070800
      8 N1          -2.0690     0.0000    -1.2840 nz         1 655      -0.670600
      9 N2          -0.0680     0.0000    -2.4340 nv         1 655      -0.526100
     10 N3           1.8120     0.0010     3.7080 na         1 655      -0.210600
     11 N4          -0.3800     0.0020     3.7080 nc         1 655      -0.285600
     12 C8           0.6810     0.0020     4.4780 cc         1 655       0.193500
     13 C1'          0.6580     0.0020     5.9550 cd         1 655      -0.006000
     14 C2'          1.5730     0.7770     6.6700 cd         1 655      -0.173000
     15 C3'          1.5490     0.7740     8.0490 cc         1 655      -0.005000
     16 C4'          0.6210     0.0060     8.7310 cc         1 655      -0.263000
     17 C5'         -0.2930    -0.7680     8.0340 cd         1 655       0.162100
     18 O5'         -1.2020    -1.5200     8.7100 os         1 655      -0.219900
     19 C6'         -0.2830    -0.7710     6.6430 c          1 655       0.418100
     20 O6'         -1.1780    -1.5290     5.9560 o          1 655      -0.447100
     21 C1B         -2.3590    -1.5460    10.8490 c3         1 655      -0.096900
     22 C2B         -1.0680    -1.1870    10.0920 c3         1 655       0.089100
     23 C3B          0.0620    -2.0190    10.7310 c3         1 655      -0.096900
     24 C4B         -0.4570    -2.3370    12.1550 c3         1 655      -0.081900
     25 C5B         -1.9670    -2.5850    11.9200 c3         1 655      -0.081900
     26 HC2          1.9380    -0.0050    -0.9400 ha         1 655       0.139000
     27 HC3          3.1760    -0.0000     1.1660 ha         1 655       0.150000
     28 HC6         -1.7830     0.0070     1.2020 ha         1 655       0.124000
     29 HH11        -2.4040    -0.8150    -0.8110 hn         1 655       0.440133
     30 HH12        -2.4040     0.8190    -0.8160 hn         1 655       0.440133
     31 HH21        -0.5670     0.0000    -3.3010 hn         1 655       0.298200
     32 HH22         0.9330    -0.0000    -2.4320 hn         1 655       0.298200
     33 HN3          2.7560     0.0010     4.0400 hn         1 655       0.319700
     34 HC2'         2.3020     1.3800     6.1420 ha         1 655       0.146000
     35 HC3'         2.2600     1.3770     8.6020 ha         1 655       0.156000
     36 HC4'         0.6090     0.0100     9.8140 ha         1 655       0.178000
     37 H1A         -3.0810    -1.9750    10.1640 hc         1 655       0.063200
     38 H1B         -2.7680    -0.6630    11.3230 hc         1 655       0.063200
     39 H2A         -0.8570    -0.1300    10.2060 h1         1 655       0.067700
     40 H3A          0.2190    -2.9340    10.1720 hc         1 655       0.063200
     41 H3B          0.9750    -1.4380    10.7830 hc         1 655       0.063200
     42 H4A          0.0200    -3.2280    12.5450 hc         1 655       0.057200
     43 H4B         -0.3060    -1.4920    12.8150 hc         1 655       0.057200
     44 H5A         -2.5240    -2.4140    12.8330 hc         1 655       0.057200
     45 H5B         -2.1320    -3.5900    11.5500 hc         1 655       0.057200
     46 H13         -2.4000     0.0050    -2.2290 hn         1 655       0.440133
@<TRIPOS>BOND
     1     1     2 ar
     2     1     6 ar
     3     1     7 1
     4     2     3 ar
     5     2    26 1
     6     3     4 ar
     7     3    27 1
     8     4     5 ar
     9     4    10 2
    10     5     6 ar
    11     5    11 2
    12     6    28 1
    13     7     8 1
    14     7     9 2
    15     8    29 1
    16     8    30 1
    17     9    31 1
    18     9    32 1
    19    10    12 1
    20    10    33 1
    21    11    12 1
    22    12    13 2
    23    13    14 1
    24    13    19 1
    25    14    15 2
    26    14    34 1
    27    15    16 1
    28    15    35 1
    29    16    17 2
    30    16    36 1
    31    17    18 1
    32    17    19 1
    33    18    22 1
    34    19    20 2
    35    21    22 1
    36    21    25 1
    37    21    37 1
    38    21    38 1
    39    22    23 1
    40    22    39 1
    41    23    24 1
    42    23    40 1
    43    23    41 1
    44    24    25 1
    45    24    42 1
    46    24    43 1
    47    25    44 1
    48    25    45 1
    49    46     8 1
@<TRIPOS>SUBSTRUCTURE
     1 655         1 TEMP              0 ****  ****    0 ROOT
