@<TRIPOS>MOLECULE
molecule
   45    47     1     0     0
SMALL
bcc


@<TRIPOS>ATOM
      1 C1           0.0000     0.0000     0.0000 ca         1 656      -0.066900
      2 C2           1.4010     0.0000     0.0000 ca         1 656      -0.147000
      3 C3           2.0930     0.0000     1.1760 ca         1 656      -0.112000
      4 C4           1.4110     0.0010     2.3880 ca         1 656      -0.011000
      5 C5           0.0040     0.0000     2.4070 ca         1 656      -0.010000
      6 C6          -0.6990     0.0010     1.2020 ca         1 656      -0.150000
      7 C7          -0.7360    -0.0000    -1.2810 ce         1 656       0.068800
      8 N1          -0.0680     0.0000    -2.4340 nz         1 656      -0.670600
      9 N2          -2.0680    -0.0010    -1.2840 nv         1 656      -0.509100
     10 N3           1.8140     0.0010     3.7070 na         1 656      -0.210600
     11 N4          -0.3790    -0.0040     3.7080 nc         1 656      -0.281600
     12 C8           0.6810     0.0010     4.4770 cc         1 656       0.197500
     13 C1'          0.6600     0.0020     5.9550 cd         1 656      -0.012000
     14 C2'          1.5730     0.7790     6.6700 cd         1 656      -0.167000
     15 C3'          1.5500     0.7760     8.0490 cc         1 656      -0.010000
     16 C4'          0.6230     0.0070     8.7310 cc         1 656      -0.256000
     17 C5'         -0.2900    -0.7680     8.0340 cd         1 656       0.158100
     18 C6'         -0.2750    -0.7800     6.6440 c          1 656       0.416100
     19 O6'         -1.1680    -1.5390     5.9580 o          1 656      -0.449100
     20 O5'         -1.1990    -1.5210     8.7110 os         1 656      -0.222900
     21 C10         -0.9620    -1.3030    10.1030 c3         1 656       0.099400
     22 C20         -1.9550    -2.1280    10.9240 c3         1 656      -0.078700
     23 C30         -1.6940    -3.6170    10.6970 c3         1 656      -0.089600
     24 C40         -1.7840    -1.8000    12.4090 c3         1 656      -0.089600
     25 HC2          2.1930    -0.0010    -0.7390 ha         1 656       0.140000
     26 HC3          3.1760    -0.0010     1.1830 ha         1 656       0.144000
     27 HC6         -1.7400     0.0290     1.5020 ha         1 656       0.176000
     28 HH11        -0.7170     0.0000    -3.1960 hn         1 656       0.437800
     29 HH12         0.5080    -0.8170    -2.4870 hn         1 656       0.437800
     30 HH21        -2.5670    -0.0010    -2.1520 hn         1 656       0.302700
     31 HH22        -2.5710    -0.0000    -0.4180 hn         1 656       0.302700
     32 HN3          2.7580     0.0050     4.0390 hn         1 656       0.317700
     33 HC2'         2.3010     1.3830     6.1420 ha         1 656       0.144000
     34 HC3'         2.2600     1.3800     8.6010 ha         1 656       0.156000
     35 HC4'         0.6100     0.0130     9.8140 ha         1 656       0.169000
     36 H10A         0.0490    -1.6070    10.3490 h1         1 656       0.052700
     37 H10B        -1.0890    -0.2520    10.3310 h1         1 656       0.052700
     38 H20         -2.9660    -1.8870    10.6160 hc         1 656       0.071700
     39 H30A        -2.1990    -4.1940    11.4630 hc         1 656       0.043533
     40 H30B        -0.6290    -3.8080    10.7440 hc         1 656       0.043533
     41 H30C        -2.0700    -3.9050     9.7220 hc         1 656       0.043533
     42 H40A        -2.5110    -2.3560    12.9880 hc         1 656       0.043533
     43 H40B        -0.7850    -2.0730    12.7260 hc         1 656       0.043533
     44 H40C        -1.9340    -0.7380    12.5640 hc         1 656       0.043533
     45 H13          0.4950     0.8250    -2.4930 hn         1 656       0.437800
@<TRIPOS>BOND
     1     1     2 ar  
     2     1     6 ar  
     3     1     7 1   
     4     2     3 ar  
     5     2    25 1   
     6     3     4 ar  
     7     3    26 1   
     8     4     5 ar  
     9     4    10 2   
    10     5     6 ar  
    11     5    11 2   
    12     6    27 1   
    13     7     8 1   
    14     7     9 2   
    15     8    28 1   
    16     8    29 1   
    17     9    30 1   
    18     9    31 1   
    19    10    12 1   
    20    10    32 1   
    21    11    12 1   
    22    12    13 2   
    23    13    14 1   
    24    13    18 1   
    25    14    15 2   
    26    14    33 1   
    27    15    16 1   
    28    15    34 1   
    29    16    17 2   
    30    16    35 1   
    31    17    18 1   
    32    17    20 1   
    33    18    19 2   
    34    20    21 1   
    35    21    22 1   
    36    21    36 1   
    37    21    37 1   
    38    22    23 1   
    39    22    24 1   
    40    22    38 1   
    41    23    39 1   
    42    23    40 1   
    43    23    41 1   
    44    24    42 1   
    45    24    43 1   
    46    24    44 1   
    47    45     8 1   
@<TRIPOS>SUBSTRUCTURE
     1 656         1 TEMP              0 ****  ****    0 ROOT
