@<TRIPOS>MOLECULE
656
   44    46     1     0     0
SMALL
bcc


@<TRIPOS>ATOM
      1 C1         -0.0730   -0.0220    0.0160 ca        1 656     -0.284900
      2 C2          1.3000    0.2910   -0.0350 ca        1 656     -0.112000
      3 C3          2.0550    0.4150    1.1250 ca        1 656     -0.155000
      4 C4          1.4170    0.2250    2.3500 ca        1 656      0.024000
      5 C5         -0.0250   -0.0960    2.4230 ca        1 656     -0.008000
      6 C6         -0.7460   -0.2130    1.2410 ca        1 656     -0.112000
      7 C7         -0.8310   -0.1700   -1.2310 ce        1 656      0.529400
      8 N1         -0.5490    0.6410   -2.2880 nh        1 656     -0.500100
      9 N2         -1.7980   -1.1230   -1.3100 nh        1 656     -0.484200
     10 N3          1.8470    0.2700    3.6580 na        1 656     -0.281600
     11 N4         -0.4210   -0.2240    3.7460 nc        1 656     -0.323600
     12 C8          0.7120   -0.0210    4.5070 cc        1 656      0.321500
     13 C1'         0.8430   -0.0710    5.9170 cd        1 656     -0.339200
     14 C2'         1.9460    0.5610    6.5640 cd        1 656     -0.070000
     15 C3'         2.0900    0.5670    7.9170 cc        1 656     -0.208000
     16 C4'         1.1180   -0.0680    8.7480 cc        1 656     -0.181000
     17 C5'         0.0500   -0.6890    8.1780 cd        1 656     -0.006100
     18 C6'        -0.1590   -0.7670    6.7070 c         1 656      0.602500
     19 O6'        -1.1090   -1.4250    6.2440 o         1 656     -0.590100
     20 O5'        -0.9660   -1.3210    8.8700 os        1 656     -0.304900
     21 C10        -0.8550   -1.2880   10.2950 c3        1 656      0.126400
     22 C20        -2.0780   -2.0240   10.8380 c3        1 656     -0.070700
     23 C30        -1.9640   -3.5100   10.5810 c3        1 656     -0.090100
     24 C40        -2.2270   -1.7360   12.3160 c3        1 656     -0.090100
     25 HC2         1.8130    0.4030   -1.0020 ha        1 656      0.116000
     26 HC3         3.1270    0.6470    1.0690 ha        1 656      0.142000
     27 HC6        -1.8250   -0.4140    1.2900 ha        1 656      0.144000
     28 HH11       -0.9940    0.5550   -3.1700 hn        1 656      0.312450
     29 HH12        0.1510    1.3390   -2.1710 hn        1 656      0.312450
     30 HH21       -1.9610   -1.6960   -0.5090 hn        1 656      0.312450
     31 HH22       -2.3980   -1.2220   -2.0950 hn        1 656      0.312450
     32 HN3         2.7670    0.4340    3.9690 hn        1 656      0.308700
     33 HC2'        2.6960    1.0940    5.9600 ha        1 656      0.085000
     34 HC3'        2.9410    1.0650    8.3990 ha        1 656      0.112000
     35 HC4'        1.2650   -0.0280    9.8350 ha        1 656      0.118000
     36 H10A       -0.8460   -0.2220   10.6470 h1        1 656      0.030200
     37 H10B        0.0930   -1.7950   10.6150 h1        1 656      0.030200
     38 H20        -2.9850   -1.6360   10.2930 hc        1 656      0.067700
     39 H30A       -2.8950   -4.0330   10.9070 hc        1 656      0.034200
     40 H30B       -1.8080   -3.6920    9.4890 hc        1 656      0.034200
     41 H30C       -1.1000   -3.9430   11.1420 hc        1 656      0.034200
     42 H40A       -2.3720   -0.6430   12.4910 hc        1 656      0.034200
     43 H40B       -1.3180   -2.0670   12.8750 hc        1 656      0.034200
     44 H40C       -3.1110   -2.2820   12.7250 hc        1 656      0.034200
@<TRIPOS>BOND
     1    1    2 ar  
     2    1    6 ar  
     3    1    7 1   
     4    2    3 ar  
     5    2   25 1   
     6    3    4 ar  
     7    3   26 1   
     8    4    5 ar  
     9    4   10 2   
    10    5    6 ar  
    11    5   11 2   
    12    6   27 1   
    13    7    8 2   
    14    7    9 1   
    15    8   28 1   
    16    8   29 1   
    17    9   30 1   
    18    9   31 1   
    19   10   12 1   
    20   10   32 1   
    21   11   12 1   
    22   12   13 2   
    23   13   14 1   
    24   13   18 1   
    25   14   15 2   
    26   14   33 1   
    27   15   16 1   
    28   15   34 1   
    29   16   17 2   
    30   16   35 1   
    31   17   18 1   
    32   17   20 1   
    33   18   19 2   
    34   20   21 1   
    35   21   22 1   
    36   21   36 1   
    37   21   37 1   
    38   22   23 1   
    39   22   24 1   
    40   22   38 1   
    41   23   39 1   
    42   23   40 1   
    43   23   41 1   
    44   24   42 1   
    45   24   43 1   
    46   24   44 1   
@<TRIPOS>SUBSTRUCTURE
     1 656         1 TEMP              0 ****  ****    0 ROOT
