@<TRIPOS>MOLECULE
molecule
   20    21     1     0     0
SMALL
bcc


@<TRIPOS>ATOM
      1 C4           0.0000     0.0000     0.0000 ca         1 657      -0.013100
      2 N2           1.4860     0.0020     3.5680 nv         1 657      -0.989800
      3 C7           0.0450    -0.0010    -4.7810 c3         1 657       0.796700
      4 C6          -0.0290    -0.0010    -2.4040 ca         1 657       0.131100
      5 C8           1.1070     0.0020     2.2410 cc         1 657       0.657100
      6 C1           1.3610    -0.0010    -2.4160 ca         1 657      -0.199000
      7 C2           2.0690    -0.0010    -1.2400 ca         1 657      -0.035000
      8 C3           1.3980     0.0000     0.0000 ca         1 657       0.104400
      9 C5          -0.7070     0.0000    -1.1990 ca         1 657      -0.102000
     10 O1          -0.7210    -0.0010    -3.5750 os         1 657      -0.338900
     11 F1          -0.8180    -0.0020    -5.8810 f          1 657      -0.203633
     12 F2           0.8530     1.1410    -4.8210 f          1 657      -0.203633
     13 F3           0.8510    -1.1440    -4.8200 f          1 657      -0.203633
     14 S1          -0.5570     0.0080     1.6720 ss         1 657      -0.175100
     15 N1           1.9220     0.0000     1.2430 nd         1 657      -0.588100
     16 H4           1.6140    -0.8650     4.0520 hn         1 657       0.448800
     17 H5           1.6180     0.8690     4.0510 hn         1 657       0.448800
     18 H1           1.8900    -0.0020    -3.3610 ha         1 657       0.155000
     19 H2           3.1520    -0.0010    -1.2650 ha         1 657       0.154000
     20 H3          -1.7900     0.0000    -1.1880 ha         1 657       0.155000
@<TRIPOS>BOND
     1     2     5 1   
     2    14     5 1   
     3    14     1 1   
     4     5    15 2   
     5     1     9 ar  
     6     1     8 ar  
     7    15     8 1   
     8     9     4 ar  
     9     8     7 ar  
    10     4    10 1   
    11     4     6 ar  
    12    10     3 1   
    13     7     6 ar  
    14    11     3 1   
    15     3    13 1   
    16     3    12 1   
    17     2    16 1   
    18     2    17 1   
    19     6    18 1   
    20     7    19 1   
    21     9    20 1   
@<TRIPOS>SUBSTRUCTURE
     1 657         1 TEMP              0 ****  ****    0 ROOT
