@<TRIPOS>MOLECULE
molecule
   35    37     1     0     0
SMALL
bcc


@<TRIPOS>ATOM
      1 N3           0.0000     0.0000     0.0000 nb         1 658      -0.810000
      2 C4          -2.8410     0.0000    -0.0320 cc         1 658      -0.028600
      3 N2          -2.9360    -0.0020     2.1960 nd         1 658      -0.475800
      4 C7           2.0000     0.0000     1.2050 ca         1 658      -0.469600
      5 C6           1.3240     0.0000     0.0000 ca         1 658       0.517200
      6 C9           1.1360    -0.1230     4.7920 ca         1 658       0.146600
      7 C13         -0.7700    -0.9960     5.9540 ca         1 658      -0.103000
      8 C8           1.2540    -0.0010     2.3860 ca         1 658       0.747200
      9 N5           1.8880    -0.0010     3.6180 nu         1 658      -0.762300
     10 N1          -2.0750    -0.0010     1.0910 na         1 658       0.040600
     11 C2          -4.1670    -0.0030     1.7560 cc         1 658       0.348600
     12 C3          -4.1360    -0.0010     0.3570 cc         1 658      -0.343300
     13 N4          -0.0740    -0.0010     2.3090 nb         1 658      -0.791000
     14 C5          -0.6810    -0.0010     1.1350 ca         1 658       0.856500
     15 C10          1.5480     0.5200     5.9520 ca         1 658      -0.131500
     16 C11          0.8010     0.4030     7.1070 ca         1 658      -0.103000
     17 C12         -0.3570    -0.3540     7.1100 ca         1 658       0.011400
     18 C14         -0.0260    -0.8820     4.7960 ca         1 658      -0.131500
     19 H6           3.0830    -0.0000     1.2330 ha         1 658       0.146000
     20 H5           1.8710     0.0010    -0.9350 h4         1 658       0.034100
     21 H10         -1.6770    -1.5880     5.9590 ha         1 658       0.146500
     22 H7           2.8860     0.0610     3.6680 hn         1 658       0.460800
     23 H3          -5.2660     0.6600     3.4550 hc         1 658       0.052033
     24 H1          -6.2530     0.3350     2.0230 hc         1 658       0.052033
     25 H2          -5.5990    -1.0080     2.9700 hc         1 658       0.052033
     26 H4          -4.9980    -0.0010    -0.2990 ha         1 658       0.160000
     27 H8           2.4550     1.1120     5.9500 ha         1 658       0.151500
     28 H9           1.1220     0.9040     8.0120 ha         1 658       0.146500
     29 H11         -0.3490    -1.3850     3.8920 ha         1 658       0.151500
     30 H14         -1.7190     0.8830    -1.6110 hc         1 658       0.056700
     31 H13         -3.1810     0.0340    -2.1330 hc         1 658       0.056700
     32 H12         -1.7540    -0.8860    -1.6340 hc         1 658       0.056700
     33 C15         -2.3380     0.0080    -1.4520 c3         1 658      -0.019800
     34 C1          -5.4080    -0.0040     2.6110 c3         1 658      -0.110400
     35 Cl1         -1.2940    -0.5000     8.5640 cl         1 658      -0.114400
@<TRIPOS>BOND
     1    12    11 1   
     2    12     2 2   
     3    34    11 1   
     4    33     2 1   
     5    11     3 2   
     6     2    10 1   
     7     3    10 1   
     8    10    14 1   
     9    14    13 ar  
    10    14     1 ar  
    11    13     8 ar  
    12     1     5 ar  
    13     9     8 1   
    14     9     6 1   
    15     8     4 ar  
    16     5     4 ar  
    17     6    18 ar  
    18     6    15 ar  
    19    18     7 ar  
    20    15    16 ar  
    21     7    17 ar  
    22    16    17 ar  
    23    17    35 1   
    24     4    19 1   
    25     5    20 1   
    26     7    21 1   
    27     9    22 1   
    28    34    23 1   
    29    34    24 1   
    30    34    25 1   
    31    12    26 1   
    32    15    27 1   
    33    16    28 1   
    34    18    29 1   
    35    33    30 1   
    36    33    31 1   
    37    33    32 1   
@<TRIPOS>SUBSTRUCTURE
     1 658         1 TEMP              0 ****  ****    0 ROOT
