@<TRIPOS>MOLECULE
658
   35    37     1     0     0
SMALL
bcc


@<TRIPOS>ATOM
      1 N3           0.0000     0.0000     0.0000 nb         1 658      -0.705000
      2 C4          -2.8410     0.0000    -0.0320 cc         1 658      -0.210600
      3 N2          -2.9360    -0.0020     2.1960 nc         1 658      -0.632800
      4 C7           2.0000     0.0000     1.2050 ca         1 658      -0.444600
      5 C6           1.3240     0.0000     0.0000 ca         1 658       0.511200
      6 C9           1.1360    -0.1230     4.7920 ca         1 658      -0.015400
      7 C13         -0.7700    -0.9960     5.9540 ca         1 658      -0.076500
      8 C8           1.2540    -0.0010     2.3860 ca         1 658       0.542200
      9 N5           1.8880    -0.0010     3.6180 nu         1 658      -0.288300
     10 N1          -2.0750    -0.0010     1.0910 na         1 658       0.500600
     11 C2          -4.1670    -0.0030     1.7560 cd         1 658       0.371600
     12 C3          -4.1360    -0.0010     0.3570 cd         1 658      -0.325300
     13 N4          -0.0740    -0.0010     2.3090 nb         1 658      -0.666000
     14 C5          -0.6810    -0.0010     1.1350 ca         1 658       0.606500
     15 C10          1.5480     0.5200     5.9520 ca         1 658      -0.103500
     16 C11          0.8010     0.4030     7.1070 ca         1 658      -0.076500
     17 C12         -0.3570    -0.3540     7.1100 ca         1 658      -0.046600
     18 C14         -0.0260    -0.8820     4.7960 ca         1 658      -0.103500
     19 H6           3.0830    -0.0000     1.2330 ha         1 658       0.129000
     20 H5           1.8710     0.0010    -0.9350 h4         1 658      -0.015900
     21 H10         -1.6770    -1.5880     5.9590 ha         1 658       0.115500
     22 H7           2.8860     0.0610     3.6680 hn         1 658       0.288800
     23 H3          -5.2660     0.6600     3.4550 hc         1 658       0.010700
     24 H1          -6.2530     0.3350     2.0230 hc         1 658       0.010700
     25 H2          -5.5990    -1.0080     2.9700 hc         1 658       0.010700
     26 H4          -4.9980    -0.0010    -0.2990 ha         1 658       0.138000
     27 H8           2.4550     1.1120     5.9500 ha         1 658       0.123500
     28 H9           1.1220     0.9040     8.0120 ha         1 658       0.115500
     29 H11         -0.3490    -1.3850     3.8920 ha         1 658       0.123500
     30 H14         -1.7190     0.8830    -1.6110 hc         1 658       0.017367
     31 H13         -3.1810     0.0340    -2.1330 hc         1 658       0.017367
     32 H12         -1.7540    -0.8860    -1.6340 hc         1 658       0.017367
     33 C15         -2.3380     0.0080    -1.4520 c3         1 658       0.096200
     34 C1          -5.4080    -0.0040     2.6110 c3         1 658      -0.003400
     35 Cl1         -1.2940    -0.5000     8.5640 cl         1 658      -0.031400
@<TRIPOS>BOND
     1     1     5 ar  
     2     1    14 ar  
     3     2    10 1   
     4     2    12 2   
     5     2    33 1   
     6     3    10 1   
     7     3    11 2   
     8     4     5 ar  
     9     4     8 ar  
    10     4    19 1   
    11     5    20 1   
    12     6     9 1   
    13     6    15 ar  
    14     6    18 ar  
    15     7    17 ar  
    16     7    18 ar  
    17     7    21 1   
    18     8     9 1   
    19     8    13 ar  
    20     9    22 1   
    21    10    14 1   
    22    11    12 1   
    23    11    34 1   
    24    12    26 1   
    25    13    14 ar  
    26    15    16 ar  
    27    15    27 1   
    28    16    17 ar  
    29    16    28 1   
    30    17    35 1   
    31    18    29 1   
    32    23    34 1   
    33    24    34 1   
    34    25    34 1   
    35    30    33 1   
    36    31    33 1   
    37    32    33 1   
@<TRIPOS>SUBSTRUCTURE
     1 658         1 TEMP              0 ****  ****    0 ROOT
