@<TRIPOS>MOLECULE
659
   63    69     1     0     0
SMALL
bcc


@<TRIPOS>ATOM
      1 C1           0.0000     0.0000     0.0000 DU         1 659       0.116000
      2 C2           1.5450     0.0000     0.0000 c3         1 659      -0.013000
      3 C3           1.9200     0.0000     1.4990 c3         1 659       0.004000
      4 C4           0.5580    -0.0010     2.2270 c3         1 659       0.069000
      5 O5          -0.3690    -0.5670     1.2750 os         1 659      -0.245000
      6 F6           2.0350    -1.1500    -0.6280 f          1 659      -0.140000
      7 O7           2.6650     1.1740     1.8280 oh         1 659      -0.286000
      8 C8          -0.5250    -0.8530    -1.1260 c2         1 659      -0.099000
      9 C9          -1.8590    -8.7960    -2.9190 ca         1 659       0.015000
     10 C10         -1.2100    -9.1480    -1.7500 ca         1 659      -0.112000
     11 C11         -0.8130    -8.1620    -0.8440 cp         1 659      -0.037000
     12 C12         -1.0680    -6.8240    -1.1120 ca         1 659      -0.080000
     13 C13         -1.7240    -6.4650    -2.2920 ca         1 659      -0.147000
     14 C14         -2.1210    -7.4570    -3.1960 ca         1 659       0.130000
     15 C15         -0.1160    -8.5470     0.4090 cq         1 659      -0.043000
     16 C16          0.1420    -9.8890     0.6820 ca         1 659      -0.075000
     17 C17          0.7910   -10.2420     1.8480 ca         1 659      -0.126000
     18 C18          1.1850    -9.2630     2.7470 ca         1 659       0.070000
     19 C19          0.9300    -7.9280     2.4800 ca         1 659      -0.126000
     20 C20          0.2870    -7.5660     1.3130 ca         1 659      -0.075000
     21 O21         -2.7580    -7.1130    -4.3450 oh         1 659      -0.201000
     22 F23          1.8200    -9.6120     3.8870 f          1 659      -0.093000
     23 C24         -1.9980    -5.0450    -2.5820 c2         1 659       0.275000
     24 N25         -1.6160    -4.0920    -1.7090 ns         1 659      -0.065000
     25 O26         -2.5700    -4.7330    -3.6090 o          1 659      -0.394000
     26 C27         -1.8880    -2.6810    -1.9980 DU         1 659       0.103000
     27 C28         -1.3640    -1.8280    -0.8730 c2         1 659      -0.113000
     28 N29          0.6240    -0.8300     3.4330 na         1 659       0.286000
     29 N30          0.4470    -2.5640     4.7460 n2         1 659      -0.067000
     30 C31          0.2560    -2.1400     3.5310 c2         1 659      -0.206000
     31 C32          0.9500    -1.5580     5.5010 c2         1 659      -0.251000
     32 C33          1.0730    -0.4350     4.6670 c2         1 659      -0.118000
     33 N34          1.5520     0.6970     5.1730 n2         1 659      -0.153000
     34 C35          1.9100     0.7680     6.4370 c2         1 659       0.030000
     35 N36          1.8140    -0.2610     7.2600 n2         1 659      -0.216000
     36 C37          1.3450    -1.4330     6.8450 c2         1 659       0.082000
     37 N38          1.2530    -2.5070     7.7120 nu         1 659       0.090000
     38 C39          1.6690    -2.3570     9.1090 c3         1 659      -0.083000
     39 H1          -0.3740     1.0130    -0.0810 ha         1 659       0.070000
     40 H2           1.9220     0.8930    -0.4830 h1         1 659       0.094000
     41 H3           2.4810    -0.8930     1.7470 h1         1 659       0.081000
     42 H4           0.2670     1.0130     2.4750 h2         1 659       0.105000
     43 HO7          3.5830     1.0130     1.6900 ho         1 659       0.203000
     44 H8          -1.0830    -0.0530    -0.6530 DU         1 659       0.041000
     45 H10         -1.0090   -10.1900    -1.5370 ha         1 659       0.122000
     46 H12         -0.7590    -6.0610    -0.4090 ha         1 659       0.116000
     47 H16         -0.1660   -10.6540    -0.0200 ha         1 659       0.113000
     48 H17          0.9920   -11.2850     2.0610 ha         1 659       0.121000
     49 H19          1.2420    -7.1660     3.1840 ha         1 659       0.121000
     50 H20          0.0880    -6.5220     1.1050 ha         1 659       0.113000
     51 HO21        -2.2260    -7.3560    -5.0840 ho         1 659       0.199000
     52 HO22        -1.4740   -10.1610    -4.1770 ho         1 659       0.196000
     53 HN25        -1.1430    -4.3480    -0.8650 hn         1 659       0.110000
     54 H27         -1.3980    -2.4010    -2.9220 ha         1 659       0.071000
     55 H27A        -2.9560    -2.5330    -2.0960 ha         1 659       0.071000
     56 H28         -2.1500    -1.5260    -1.5540 DU         1 659       0.024000
     57 H31         -0.1370    -2.7380     2.7180 h5         1 659       0.171000
     58 H35          2.2970     1.7050     6.8170 h5         1 659       0.132000
     59 HN38         0.8760    -3.3770     7.3930 hn         1 659       0.101000
     60 H39          1.5240    -3.2950     9.6320 h1         1 659       0.050667
     61 H39A         1.0740    -1.5850     9.5820 h1         1 659       0.050667
     62 H39B         2.7150    -2.0800     9.1470 h1         1 659       0.050667
     63 O22         -2.2390    -9.7590    -3.8000 oh         1 659      -0.234000
@<TRIPOS>BOND
     1     1     2 1   
     2     1     5 1   
     3     1     8 1   
     4     1    39 1   
     5     1    44 1   
     6     2     3 1   
     7     2     6 1   
     8     2    40 1   
     9     3     4 1   
    10     3     7 1   
    11     3    41 1   
    12     4     5 1   
    13     4    28 1   
    14     4    42 1   
    15     7    43 1   
    16     8    27 1   
    17     8    44 1   
    18     9    10 1   
    19     9    14 1   
    20     9    63 1   
    21    10    11 1   
    22    10    45 1   
    23    11    12 1   
    24    11    15 1   
    25    12    13 1   
    26    12    46 1   
    27    13    14 1   
    28    13    23 1   
    29    14    21 1   
    30    15    16 1   
    31    15    20 1   
    32    16    17 1   
    33    16    47 1   
    34    17    18 1   
    35    17    48 1   
    36    18    19 1   
    37    18    22 1   
    38    19    20 1   
    39    19    49 1   
    40    20    50 1   
    41    21    51 1   
    42    23    24 1   
    43    23    25 1   
    44    24    26 1   
    45    24    53 1   
    46    26    27 1   
    47    26    54 1   
    48    26    55 1   
    49    26    56 1   
    50    27    56 1   
    51    28    30 1   
    52    28    32 1   
    53    29    30 1   
    54    29    31 1   
    55    30    57 1   
    56    31    32 1   
    57    31    36 1   
    58    32    33 1   
    59    33    34 1   
    60    34    35 1   
    61    34    58 1   
    62    35    36 1   
    63    36    37 1   
    64    37    38 1   
    65    37    59 1   
    66    38    60 1   
    67    38    61 1   
    68    38    62 1   
    69    52    63 1   
@<TRIPOS>SUBSTRUCTURE
     1 659         1 TEMP              0 ****  ****    0 ROOT
