@<TRIPOS>MOLECULE
molecule
   63    67     1     0     0
SMALL
bcc


@<TRIPOS>ATOM
      1 C1           0.0000     0.0000     0.0000 c3         1 659       0.151300
      2 C2           1.5450     0.0000     0.0000 c3         1 659       0.110600
      3 C3           1.9200     0.0000     1.4990 c3         1 659       0.074100
      4 C4           0.5580    -0.0010     2.2270 c3         1 659       0.266800
      5 O5          -0.3690    -0.5670     1.2750 os         1 659      -0.413600
      6 F6           2.0350    -1.1500    -0.6280 f          1 659      -0.227300
      7 O7           2.6650     1.1740     1.8280 oh         1 659      -0.578800
      8 C8          -0.5250    -0.8530    -1.1260 c2         1 659      -0.164200
      9 C9          -1.8590    -8.7960    -2.9190 ca         1 659       0.055100
     10 C10         -1.2100    -9.1480    -1.7500 ca         1 659      -0.127000
     11 C11         -0.8130    -8.1620    -0.8440 cp         1 659      -0.039000
     12 C12         -1.0680    -6.8240    -1.1120 ca         1 659      -0.095000
     13 C13         -1.7240    -6.4650    -2.2920 ca         1 659      -0.149600
     14 C14         -2.1210    -7.4570    -3.1960 ca         1 659       0.158100
     15 C15         -0.1160    -8.5470     0.4090 cp         1 659      -0.052000
     16 C16          0.1420    -9.8890     0.6820 ca         1 659      -0.094500
     17 C17          0.7910   -10.2420     1.8480 ca         1 659      -0.162500
     18 C18          1.1850    -9.2630     2.7470 ca         1 659       0.136900
     19 C19          0.9300    -7.9280     2.4800 ca         1 659      -0.162500
     20 C20          0.2870    -7.5660     1.3130 ca         1 659      -0.094500
     21 O21         -2.7580    -7.1130    -4.3450 oh         1 659      -0.469100
     22 F23          1.8200    -9.6120     3.8870 f          1 659      -0.137900
     23 C24         -1.9980    -5.0450    -2.5820 c          1 659       0.672700
     24 N25         -1.6160    -4.0920    -1.7090 ns         1 659      -0.585900
     25 O26         -2.5700    -4.7330    -3.6090 o          1 659      -0.580100
     26 C27         -1.8880    -2.6810    -1.9980 c3         1 659       0.148200
     27 C28         -1.3640    -1.8280    -0.8730 c2         1 659      -0.168200
     28 N29          0.6240    -0.8300     3.4330 na         1 659      -0.254000
     29 N30          0.4470    -2.5640     4.7460 nc         1 659      -0.586100
     30 C31          0.2560    -2.1400     3.5310 cd         1 659       0.426700
     31 C32          0.9500    -1.5580     5.5010 ca         1 659      -0.211200
     32 C33          1.0730    -0.4350     4.6670 ca         1 659       0.479800
     33 N34          1.5520     0.6970     5.1730 nb         1 659      -0.790000
     34 C35          1.9100     0.7680     6.4370 ca         1 659       0.743900
     35 N36          1.8140    -0.2610     7.2600 nb         1 659      -0.833000
     36 C37          1.3450    -1.4330     6.8450 ca         1 659       0.786200
     37 N38          1.2530    -2.5070     7.7120 nu         1 659      -0.892900
     38 C39          1.6690    -2.3570     9.1090 c3         1 659       0.227100
     39 H1          -0.3740     1.0130    -0.0810 h1         1 659       0.077700
     40 H2           1.9220     0.8930    -0.4830 h1         1 659       0.086700
     41 H3           2.4810    -0.8930     1.7470 h1         1 659       0.077700
     42 H4           0.2670     1.0130     2.4750 h2         1 659       0.107700
     43 HO7          3.5830     1.0130     1.6900 ho         1 659       0.418000
     44 H8          -0.2090    -0.6610    -2.1440 ha         1 659       0.150000
     45 H10         -1.0090   -10.1900    -1.5370 ha         1 659       0.146000
     46 H12         -0.7590    -6.0610    -0.4090 ha         1 659       0.135000
     47 H16         -0.1660   -10.6540    -0.0200 ha         1 659       0.137000
     48 H17          0.9920   -11.2850     2.0610 ha         1 659       0.149500
     49 H19          1.2420    -7.1660     3.1840 ha         1 659       0.149500
     50 H20          0.0880    -6.5220     1.1050 ha         1 659       0.137000
     51 HO21        -3.6320    -7.4660    -4.3370 ho         1 659       0.423000
     52 HO22        -2.9250   -10.2820    -3.4180 ho         1 659       0.416000
     53 HN25        -1.1840    -4.3510    -0.8440 hn         1 659       0.313500
     54 H27         -1.3980    -2.4010    -2.9230 h1         1 659       0.061700
     55 H27A        -2.9570    -2.5330    -2.0960 h1         1 659       0.061700
     56 H28         -1.6790    -2.0200     0.1460 ha         1 659       0.144000
     57 H31         -0.1360    -2.7380     2.7180 h5         1 659       0.084800
     58 H35          2.2970     1.7050     6.8170 h5         1 659       0.062100
     59 HN38         0.8860    -3.3810     7.3900 hn         1 659       0.463800
     60 H39          1.5160    -3.2920     9.6340 h1         1 659       0.043033
     61 H39A         1.0800    -1.5790     9.5800 h1         1 659       0.043033
     62 H39B         2.7180    -2.0890     9.1470 h1         1 659       0.043033
     63 O22         -2.2390    -9.7590    -3.8000 oh         1 659      -0.501100
@<TRIPOS>BOND
     1     1     2 1
     2     1     5 1
     3     1     8 1
     4     2     3 1
     5     2     6 1
     6     3     4 1
     7     3     7 1
     8     4     5 1
     9     4    28 1
    10     8    27 2
    11     9    10 ar
    12     9    14 ar
    13     9    63 1
    14    10    11 ar
    15    11    12 ar
    16    11    15 1
    17    12    13 ar
    18    13    14 ar
    19    13    23 1
    20    14    21 1
    21    15    16 ar
    22    15    20 ar
    23    16    17 ar
    24    17    18 ar
    25    18    19 ar
    26    18    22 1
    27    19    20 ar
    28    23    24 1
    29    23    25 2
    30    24    26 1
    31    26    27 1
    32    28    30 1
    33    28    32 1
    34    29    30 2
    35    29    31 1
    36    31    32 ar
    37    31    36 ar
    38    32    33 ar
    39    33    34 ar
    40    34    35 ar
    41    35    36 ar
    42    36    37 1
    43    37    38 1
    44     1    39 1
    45     2    40 1
    46     3    41 1
    47     4    42 1
    48     7    43 1
    49     8    44 1
    50    10    45 1
    51    12    46 1
    52    16    47 1
    53    17    48 1
    54    19    49 1
    55    20    50 1
    56    21    51 1
    57    63    52 1
    58    24    53 1
    59    26    54 1
    60    26    55 1
    61    27    56 1
    62    30    57 1
    63    34    58 1
    64    37    59 1
    65    38    60 1
    66    38    61 1
    67    38    62 1
@<TRIPOS>SUBSTRUCTURE
     1 659         1 TEMP              0 ****  ****    0 ROOT
