@<TRIPOS>MOLECULE
molecule
   43    45     1     0     0
SMALL
bcc


@<TRIPOS>ATOM
      1 C1           0.0000     0.0000     0.0000 ca         1 65B       0.119100
      2 O17         -0.6760    -0.0000    -1.1770 os         1 65B      -0.333400
      3 C2           1.3900     0.0000     0.0000 ca         1 65B      -0.070800
      4 C2'          2.1430    -0.0010    -1.3050 c3         1 65B      -0.051300
      5 C3           2.0790     0.0000     1.1930 ca         1 65B      -0.095500
      6 C4           1.3800     0.0020     2.4020 ca         1 65B       0.014000
      7 C5          -0.0180     0.0010     2.3980 ca         1 65B      -0.095500
      8 C6          -0.6990     0.0050     1.2000 ca         1 65B      -0.070800
      9 C6'         -2.2060     0.0120     1.1930 c3         1 65B      -0.051300
     10 C13         -0.9930    -1.1970    -1.7300 ca         1 65B       0.774600
     11 N12         -0.6470    -2.3300    -1.1250 nb         1 65B      -0.889000
     12 C11         -0.9520    -3.5040    -1.6570 ca         1 65B       1.010900
     13 N5          -0.5730    -4.6630    -0.9970 nu         1 65B      -0.749300
     14 N16         -1.6100    -3.6000    -2.8020 nb         1 65B      -0.873000
     15 C15         -1.9900    -2.5090    -3.4620 ca         1 65B       0.805200
     16 N18         -2.6790    -2.6170    -4.6600 nv         1 65B      -0.984500
     17 C14         -1.6890    -1.2560    -2.9310 ca         1 65B      -0.404500
     18 C21         -0.9850    -5.9050    -1.4780 ca         1 65B       0.181600
     19 C22         -0.1500    -7.0100    -1.3460 ca         1 65B      -0.150500
     20 C23         -0.5530    -8.2380    -1.8200 ca         1 65B      -0.073500
     21 C24         -1.8020    -8.3740    -2.4340 ca         1 65B      -0.043000
     22 C25         -2.6370    -7.2610    -2.5640 ca         1 65B      -0.073500
     23 C26         -2.2300    -6.0370    -2.0840 ca         1 65B      -0.150500
     24 C27         -2.2230    -9.6490    -2.9280 cg         1 65B       0.241800
     25 N27         -2.5400   -10.6650    -3.3280 n1         1 65B      -0.366800
     26 C4'          2.1590    -0.0850     3.6270 cg         1 65B       0.215800
     27 N4'          2.6440    -0.3930     4.7530 n1         1 65B      -0.362800
     28 Br          -2.2120     0.3260    -3.8250 br         1 65B      -0.073100
     29 H2'1         1.6190     0.6160    -2.0250 hc         1 65B       0.053533
     30 H2'2         3.1390     0.3950    -1.1470 hc         1 65B       0.053533
     31 H2'3         2.2130    -1.0140    -1.6810 hc         1 65B       0.053533
     32 H3           3.1630    -0.0000     1.1920 ha         1 65B       0.149000
     33 H5          -0.5620     0.0020     3.3340 ha         1 65B       0.149000
     34 H6'1        -2.5710    -0.9930     1.0150 hc         1 65B       0.053533
     35 H6'2        -2.5610     0.6690     0.4070 hc         1 65B       0.053533
     36 H6'3        -2.5710     0.3640     2.1500 hc         1 65B       0.053533
     37 HN5         -0.0770    -4.6060    -0.1300 hn         1 65B       0.473800
     38 H181        -2.8270    -3.5170    -5.0730 hn         1 65B       0.454800
     39 H182        -2.9900    -1.7920    -5.1340 hn         1 65B       0.454800
     40 H22          0.8170    -6.9050    -0.8700 ha         1 65B       0.153000
     41 H23          0.0970    -9.0980    -1.7170 ha         1 65B       0.144000
     42 H25         -3.6050    -7.3630    -3.0400 ha         1 65B       0.144000
     43 H26         -2.8790    -5.1750    -2.1820 ha         1 65B       0.153000
@<TRIPOS>BOND
     1     1     2 1   
     2     1     3 ar  
     3     1     8 ar  
     4     2    10 1   
     5     3     4 1   
     6     3     5 ar  
     7     4    29 1   
     8     4    30 1   
     9     4    31 1   
    10     5     6 ar  
    11     5    32 1   
    12     6     7 ar  
    13     6    26 1   
    14     7     8 ar  
    15     7    33 1   
    16     8     9 1   
    17     9    34 1   
    18     9    35 1   
    19     9    36 1   
    20    10    11 ar  
    21    10    17 ar  
    22    11    12 ar  
    23    12    13 1   
    24    12    14 ar  
    25    13    18 1   
    26    13    37 1   
    27    14    15 ar  
    28    15    16 1   
    29    15    17 ar  
    30    16    38 1   
    31    16    39 1   
    32    17    28 1   
    33    18    19 ar  
    34    18    23 ar  
    35    19    20 ar  
    36    19    40 1   
    37    20    21 ar  
    38    20    41 1   
    39    21    22 ar  
    40    21    24 1   
    41    22    23 ar  
    42    22    42 1   
    43    23    43 1   
    44    24    25 3   
    45    26    27 3   
@<TRIPOS>SUBSTRUCTURE
     1 65B         1 TEMP              0 ****  ****    0 ROOT
