@<TRIPOS>MOLECULE
molecule
   50    53     1     0     0
SMALL
bcc


@<TRIPOS>ATOM
      1 C2           0.0000     0.0000     0.0000 cc         1 65C      -0.267600
      2 C3           1.7690     0.0000     1.3060 cd         1 65C       0.467000
      3 C4           3.1670    -0.0010     1.7830 ca         1 65C      -0.401100
      4 C5           3.4620    -0.1120     3.1570 cp         1 65C       0.591800
      5 C6           5.7110    -0.0020     2.6510 ca         1 65C       0.943900
      6 N7           5.4680     0.1000     1.3500 nb         1 65C      -0.795000
      7 C9          11.8650     0.2070     2.3430 ca         1 65C       0.719200
      8 C10         14.1130     0.3280     1.8340 ca         1 65C       0.512200
      9 C11         14.4550     0.2200     3.1830 ca         1 65C      -0.215300
     10 C12         13.4330     0.1020     4.1370 ca         1 65C      -0.012000
     11 C13         12.1330     0.0960     3.7050 ca         1 65C      -0.326300
     12 C14         15.8280     0.2310     3.5890 cg         1 65C       0.248800
     13 C21          1.8290    -1.4810     4.4480 ca         1 65C      -0.067000
     14 C19          0.3380    -0.4560     6.0180 ca         1 65C       0.021400
     15 C18          0.8730     0.7890     5.7290 ca         1 65C      -0.131000
     16 C17          1.8940     0.9060     4.8070 ca         1 65C       0.077400
     17 Cl           2.5640     2.4660     4.4430 cl         1 65C      -0.098400
     18 C20          0.8160    -1.5870     5.3790 ca         1 65C      -0.117000
     19 C16          2.3750    -0.2320     4.1550 cp         1 65C      -0.114500
     20 N2           4.7360    -0.1080     3.5410 nb         1 65C      -0.771000
     21 C15          4.2330     0.1050     0.8850 ca         1 65C       0.500200
     22 N            1.3700     0.0000     0.0000 na         1 65C      -0.295900
     23 N1           0.6960     0.0040     2.0650 nc         1 65C      -0.681000
     24 C1          -0.3950     0.0060     1.2890 cc         1 65C       0.324600
     25 C           -1.8220     0.0110     1.7720 c3         1 65C      -0.107400
     26 N3           7.0220    -0.0020     3.0910 nu         1 65C      -0.882900
     27 C7           8.1180     0.1150     2.1250 c3         1 65C       0.210800
     28 C8           9.4560     0.0900     2.8670 c3         1 65C       0.217800
     29 N4          10.5520     0.2070     1.9020 nu         1 65C      -0.905900
     30 N5          12.8500     0.3180     1.4610 nb         1 65C      -0.762000
     31 N6          16.9220     0.2280     3.8950 n1         1 65C      -0.370800
     32 H1          -0.6370    -0.0000    -0.8760 h4         1 65C       0.176000
     33 H2          14.8900     0.4210     1.0850 h4         1 65C       0.035100
     34 H3          13.6790     0.0170     5.1880 ha         1 65C       0.148000
     35 H4          11.3170     0.0130     4.4130 ha         1 65C       0.143000
     36 H5           2.2010    -2.3680     3.9490 ha         1 65C       0.143000
     37 H6           0.5250     1.6650     6.2620 ha         1 65C       0.157000
     38 H7           0.3900    -2.5570     5.6080 ha         1 65C       0.144000
     39 H8           4.0400     0.2660    -0.1690 h4         1 65C       0.022100
     40 H9           1.9580    -0.0040    -0.8100 hn         1 65C       0.297700
     41 H11         -2.2710    -0.9560     1.5830 hc         1 65C       0.046700
     42 H12         -2.3790     0.7770     1.2460 hc         1 65C       0.046700
     43 H13         -1.8410     0.2170     2.8360 hc         1 65C       0.046700
     44 H14          7.2410    -0.3290     4.0110 hn         1 65C       0.455800
     45 H15          7.9030    -0.4980     1.2590 h1         1 65C       0.065700
     46 H16          8.2210     1.1500     1.8190 h1         1 65C       0.065700
     47 H17          9.6180     1.0450     3.3530 h1         1 65C       0.051200
     48 H18          9.4410    -0.6960     3.6130 h1         1 65C       0.051200
     49 H19         10.3530     0.2090     0.9210 hn         1 65C       0.455800
     50 Cl1         -0.9250    -0.3220     7.0750 cl         1 65C      -0.066400
@<TRIPOS>BOND
     1     6    21 ar
     2     6     5 ar
     3    26     5 1
     4    26    27 1
     5    21     3 ar
     6     5    20 ar
     7    27    28 1
     8     3     2 1
     9     3     4 ar
    10    28    29 1
    11    20     4 ar
    12    23     2 2
    13    23    24 1
    14     2    22 1
    15     4    19 1
    16    24    25 1
    17    24     1 2
    18    22     1 1
    19    29     7 1
    20    19    13 ar
    21    19    16 ar
    22    13    18 ar
    23     7    11 ar
    24     7    30 ar
    25    11    10 ar
    26    17    16 1
    27    30     8 ar
    28    16    15 ar
    29    18    14 ar
    30    10     9 ar
    31     8     9 ar
    32    15    14 ar
    33    14    50 1
    34     9    12 1
    35    12    31 3
    36     1    32 1
    37     8    33 1
    38    10    34 1
    39    11    35 1
    40    13    36 1
    41    15    37 1
    42    18    38 1
    43    21    39 1
    44    22    40 1
    45    25    41 1
    46    25    42 1
    47    25    43 1
    48    26    44 1
    49    27    45 1
    50    27    46 1
    51    28    47 1
    52    28    48 1
    53    29    49 1
@<TRIPOS>SUBSTRUCTURE
     1 65C         1 TEMP              0 ****  ****    0 ROOT
