@<TRIPOS>MOLECULE
molecule
   42    42     1     0     0
SMALL
bcc


@<TRIPOS>ATOM
      1 O3           0.0000     0.0000     0.0000 oh         1 65D      -0.498100
      2 C4          10.4310     0.0020    -3.8400 c3         1 65D      -0.079400
      3 C5           9.8460     0.0010    -2.4260 c3         1 65D      -0.079400
      4 C6           8.3180     0.0020    -2.5050 c3         1 65D      -0.086400
      5 C7           7.7340     0.0010    -1.0920 c3         1 65D       0.149400
      6 C8           5.6110     0.0000    -0.0010 c          1 65D       0.651700
      7 C9           4.1360     0.0000     0.0000 ca         1 65D      -0.114600
      8 C10          3.4350     0.0000     1.2090 ca         1 65D      -0.109000
      9 C11          2.0530    -0.0010     1.2070 ca         1 65D       0.080100
     10 C12          1.3590    -0.0000     0.0000 ca         1 65D       0.099100
     11 C13          2.0540     0.0010    -1.2070 ca         1 65D       0.080100
     12 C14          3.4350     0.0060    -1.2090 ca         1 65D      -0.109000
     13 O1           6.2190     0.0000     1.0520 o          1 65D      -0.547000
     14 O2           1.3710    -0.0000    -2.3830 oh         1 65D      -0.504600
     15 O            6.2840     0.0010    -1.1680 os         1 65D      -0.429900
     16 C3          11.9590     0.0020    -3.7610 c3         1 65D      -0.082400
     17 C2          12.5440     0.0030    -5.1740 c3         1 65D      -0.081400
     18 C1          14.0710     0.0030    -5.0940 c3         1 65D      -0.084400
     19 C           14.6560     0.0030    -6.5090 c3         1 65D      -0.092100
     20 H1          -0.3150    -0.8890     0.0230 ho         1 65D       0.427000
     21 H2          10.0960     0.8860    -4.3680 hc         1 65D       0.043200
     22 H3          10.0970    -0.8830    -4.3690 hc         1 65D       0.043200
     23 H4          10.1800    -0.8840    -1.8980 hc         1 65D       0.044700
     24 H5          10.1800     0.8850    -1.8970 hc         1 65D       0.044700
     25 H6           1.4120     0.8570     2.7710 ho         1 65D       0.424500
     26 H7           7.9840    -0.8820    -3.0350 hc         1 65D       0.053700
     27 H8           7.9840     0.8860    -3.0340 hc         1 65D       0.053700
     28 H9           8.0680     0.8850    -0.5630 h1         1 65D       0.051700
     29 H10          8.0680    -0.8840    -0.5640 h1         1 65D       0.051700
     30 H11          3.9750    -0.0320     2.1480 ha         1 65D       0.165500
     31 H12          3.9750     0.0070    -2.1490 ha         1 65D       0.165500
     32 H13          1.4120    -0.8590    -2.7700 ho         1 65D       0.424500
     33 H14         12.2930    -0.8820    -3.2320 hc         1 65D       0.041700
     34 H15         12.2100    -0.8810    -5.7040 hc         1 65D       0.041700
     35 H16         14.4050     0.8870    -4.5650 hc         1 65D       0.040700
     36 H17         14.4050    -0.8820    -4.5650 hc         1 65D       0.040700
     37 H18         15.7380    -0.0010    -6.4520 hc         1 65D       0.032700
     38 H19         14.3250     0.8900    -7.0360 hc         1 65D       0.032700
     39 H20         14.3200    -0.8790    -7.0390 hc         1 65D       0.032700
     40 H21         12.2920     0.8870    -3.2310 hc         1 65D       0.041700
     41 H22         12.2100     0.8880    -5.7030 hc         1 65D       0.041700
     42 O4           1.3720    -0.0020     2.3840 oh         1 65D      -0.504600
@<TRIPOS>BOND
     1     1    10 1
     2    42     9 1
     3    10     9 ar
     4    10    11 ar
     5    14    11 1
     6     9     8 ar
     7    11    12 ar
     8     8     7 ar
     9    12     7 ar
    10     7     6 1
    11     6    15 1
    12     6    13 2
    13     2     3 1
    14     2    16 1
    15    15     5 1
    16     3     4 1
    17    16    17 1
    18     5     4 1
    19    17    18 1
    20    18    19 1
    21     1    20 1
    22     2    21 1
    23     2    22 1
    24     3    23 1
    25     3    24 1
    26    42    25 1
    27     4    26 1
    28     4    27 1
    29     5    28 1
    30     5    29 1
    31     8    30 1
    32    12    31 1
    33    14    32 1
    34    16    33 1
    35    17    34 1
    36    18    35 1
    37    18    36 1
    38    19    37 1
    39    19    38 1
    40    19    39 1
    41    16    40 1
    42    17    41 1
@<TRIPOS>SUBSTRUCTURE
     1 65D         1 TEMP              0 ****  ****    0 ROOT
