@<TRIPOS>MOLECULE
65H
   39    41     1     0     0
SMALL
bcc


@<TRIPOS>ATOM
      1 C4           0.0000     0.0000     0.0000 ca         1 65H       0.288800
      2 C5           1.4070     0.0000     0.0000 ca         1 65H      -0.367400
      3 C6           2.0830     0.0000     1.2290 ca         1 65H       0.605200
      4 N1           1.3650    -0.0000     2.3470 nb         1 65H      -0.671000
      5 N3          -0.6370    -0.0010     1.1700 nb         1 65H      -0.635000
      6 CAR          1.8170     0.0020    -1.4050 cc         1 65H      -0.030400
      7 NAE          3.4670     0.0010     1.2760 nv         1 65H      -0.658500
      8 C2           0.0390    -0.0010     2.3060 ca         1 65H       0.731900
      9 NAD         -0.6660    -0.0010     3.5010 nv         1 65H      -0.639500
     10 NAV         -0.4090     0.0050    -1.3080 na         1 65H       0.319900
     11 CAC         -1.8050     0.0130    -1.7520 c3         1 65H      -0.039400
     12 CAS          0.6840     0.0020    -2.1420 cd         1 65H      -0.129500
     13 SAM          0.6180     0.0030    -3.9030 ss         1 65H      -0.252500
     14 CAP         -0.2540    -1.4850    -4.2680 ca         1 65H      -0.000100
     15 CAH         -0.5060    -1.8360    -5.5890 ca         1 65H      -0.057500
     16 CAF         -1.1900    -3.0020    -5.8730 ca         1 65H      -0.163500
     17 CAO         -1.6230    -3.8220    -4.8420 ca         1 65H       0.155100
     18 OAL         -2.2960    -4.9700    -5.1230 os         1 65H      -0.305900
     19 CAA         -2.7130    -5.7670    -4.0120 c3         1 65H       0.243700
     20 CAG         -1.3710    -3.4720    -3.5220 ca         1 65H      -0.163500
     21 CAI         -0.6840    -2.3100    -3.2350 ca         1 65H      -0.057500
     22 H1           3.2150     0.0520    -3.0100 hc         1 65H       0.015700
     23 H2           3.7320    -0.9060    -1.6160 hc         1 65H       0.015700
     24 H3           3.7610     0.8610    -1.5340 hc         1 65H       0.015700
     25 H4           3.9670    -0.8650     1.3150 hn         1 65H       0.280800
     26 H5           3.9650     0.8680     1.3250 hn         1 65H       0.280800
     27 H6          -0.9200    -0.8680     3.9310 hn         1 65H       0.277800
     28 H7          -0.9190     0.8660     3.9320 hn         1 65H       0.277800
     29 H8          -2.2740    -0.9260    -1.4850 h1         1 65H       0.034700
     30 H9          -1.8410     0.1410    -2.8270 h1         1 65H       0.034700
     31 H10         -2.3310     0.8300    -1.2730 h1         1 65H       0.034700
     32 H11         -0.1680    -1.1960    -6.3940 ha         1 65H       0.119500
     33 H12         -1.3870    -3.2760    -6.9020 ha         1 65H       0.122000
     34 H13         -3.2190    -6.6540    -4.3740 h1         1 65H      -0.001300
     35 H14         -3.3900    -5.1930    -3.3900 h1         1 65H      -0.001300
     36 H15         -1.8470    -6.0570    -3.4300 h1         1 65H      -0.001300
     37 H16         -1.7080    -4.1140    -2.7180 ha         1 65H       0.122000
     38 H17         -0.4870    -2.0370    -2.2060 ha         1 65H       0.119500
     39 CAB          3.2310     0.0020    -1.9280 c3         1 65H       0.079100
@<TRIPOS>BOND
     1     1     2 ar  
     2     1     5 ar  
     3     1    10 1   
     4     2     3 ar  
     5     2     6 1   
     6     3     4 ar  
     7     3     7 1   
     8     4     8 ar  
     9     5     8 ar  
    10     6    12 2   
    11     6    39 1   
    12     7    25 1   
    13     7    26 1   
    14     8     9 1   
    15     9    27 1   
    16     9    28 1   
    17    10    11 1   
    18    10    12 1   
    19    11    29 1   
    20    11    30 1   
    21    11    31 1   
    22    12    13 1   
    23    13    14 1   
    24    14    15 ar  
    25    14    21 ar  
    26    15    16 ar  
    27    15    32 1   
    28    16    17 ar  
    29    16    33 1   
    30    17    18 1   
    31    17    20 ar  
    32    18    19 1   
    33    19    34 1   
    34    19    35 1   
    35    19    36 1   
    36    20    21 ar  
    37    20    37 1   
    38    21    38 1   
    39    22    39 1   
    40    23    39 1   
    41    24    39 1   
@<TRIPOS>SUBSTRUCTURE
     1 65H         1 TEMP              0 ****  ****    0 ROOT
