@<TRIPOS>MOLECULE
molecule
   39    41     1     0     0
SMALL
bcc


@<TRIPOS>ATOM
      1 C4           0.0000     0.0000     0.0000 ca         1 65H       0.515800
      2 C5           1.4070     0.0000     0.0000 ca         1 65H      -0.370400
      3 C6           2.0830     0.0000     1.2290 ca         1 65H       0.774200
      4 N1           1.3650    -0.0000     2.3470 nb         1 65H      -0.791000
      5 N3          -0.6370    -0.0010     1.1700 nb         1 65H      -0.780000
      6 CAR          1.8170     0.0020    -1.4050 cc         1 65H      -0.052400
      7 NAE          3.4670     0.0010     1.2760 nv         1 65H      -1.080500
      8 C2           0.0390    -0.0010     2.3060 ca         1 65H       0.960900
      9 NAD         -0.6660    -0.0010     3.5010 nv         1 65H      -1.057500
     10 NAV         -0.4090     0.0050    -1.3080 na         1 65H      -0.162100
     11 CAC         -1.8050     0.0130    -1.7520 c3         1 65H       0.030600
     12 CAS          0.6840     0.0020    -2.1420 cd         1 65H       0.016500
     13 SAM          0.6180     0.0030    -3.9030 ss         1 65H      -0.154500
     14 CAP         -0.2540    -1.4850    -4.2680 ca         1 65H      -0.036100
     15 CAH         -0.5060    -1.8360    -5.5890 ca         1 65H      -0.087000
     16 CAF         -1.1900    -3.0020    -5.8730 ca         1 65H      -0.178500
     17 CAO         -1.6230    -3.8220    -4.8420 ca         1 65H       0.140100
     18 OAL         -2.2960    -4.9700    -5.1230 os         1 65H      -0.327900
     19 CAA         -2.7130    -5.7670    -4.0120 c3         1 65H       0.128700
     20 CAG         -1.3710    -3.4720    -3.5220 ca         1 65H      -0.178500
     21 CAI         -0.6840    -2.3100    -3.2350 ca         1 65H      -0.087000
     22 H1           3.2150     0.0520    -3.0100 hc         1 65H       0.048700
     23 H2           3.7320    -0.9060    -1.6160 hc         1 65H       0.048700
     24 H3           3.7610     0.8610    -1.5340 hc         1 65H       0.048700
     25 H4           3.9670    -0.8650     1.3150 hn         1 65H       0.440300
     26 H5           3.9650     0.8680     1.3250 hn         1 65H       0.440300
     27 H6          -0.9200    -0.8680     3.9310 hn         1 65H       0.443300
     28 H7          -0.9190     0.8660     3.9320 hn         1 65H       0.443300
     29 H8          -2.2740    -0.9260    -1.4850 h1         1 65H       0.060033
     30 H9          -1.8410     0.1410    -2.8270 h1         1 65H       0.060033
     31 H10         -2.3310     0.8300    -1.2730 h1         1 65H       0.060033
     32 H11         -0.1680    -1.1960    -6.3940 ha         1 65H       0.146000
     33 H12         -1.3870    -3.2760    -6.9020 ha         1 65H       0.143500
     34 H13         -3.2190    -6.6540    -4.3740 h1         1 65H       0.042700
     35 H14         -3.3900    -5.1930    -3.3900 h1         1 65H       0.042700
     36 H15         -1.8470    -6.0570    -3.4300 h1         1 65H       0.042700
     37 H16         -1.7080    -4.1140    -2.7180 ha         1 65H       0.143500
     38 H17         -0.4870    -2.0370    -2.2060 ha         1 65H       0.146000
     39 CAB          3.2310     0.0020    -1.9280 c3         1 65H      -0.021900
@<TRIPOS>BOND
     1    21    20 ar  
     2    21    14 ar  
     3    20    17 ar  
     4    13    14 1   
     5    13    12 1   
     6    14    15 ar  
     7    39     6 1   
     8    17    18 1   
     9    17    16 ar  
    10    18    19 1   
    11    15    16 ar  
    12     6    12 2   
    13     6     2 1   
    14    12    10 1   
    15     7     3 1   
    16     2     3 ar  
    17     2     1 ar  
    18    10    11 1   
    19    10     1 1   
    20     3     4 ar  
    21     1     5 ar  
    22     4     8 ar  
    23     5     8 ar  
    24     8     9 1   
    25    39    22 1   
    26    39    23 1   
    27    39    24 1   
    28     7    25 1   
    29     7    26 1   
    30     9    27 1   
    31     9    28 1   
    32    11    29 1   
    33    11    30 1   
    34    11    31 1   
    35    15    32 1   
    36    16    33 1   
    37    19    34 1   
    38    19    35 1   
    39    19    36 1   
    40    20    37 1   
    41    21    38 1   
@<TRIPOS>SUBSTRUCTURE
     1 65H         1 TEMP              0 ****  ****    0 ROOT
