@<TRIPOS>MOLECULE
molecule
   42    44     1     0     0
SMALL
bcc


@<TRIPOS>ATOM
      1 C4           0.0000     0.0000     0.0000 ca         1 65J       0.573800
      2 C5           1.4060     0.0000     0.0000 ca         1 65J      -0.454400
      3 C6           2.0830     0.0000     1.2300 ca         1 65J       0.811200
      4 N1           1.3630    -0.0000     2.3480 nb         1 65J      -0.886000
      5 N3          -0.6380    -0.0050     1.1700 nb         1 65J      -0.865000
      6 CAA         -2.2890     1.4440    -1.9080 c3         1 65J      -0.113100
      7 NAW         -0.4080     0.0000    -1.3090 na         1 65J      -0.146100
      8 C2           0.0370    -0.0000     2.3060 ca         1 65J       1.006900
      9 NAD         -0.6680    -0.0060     3.5010 nv         1 65J      -1.000500
     10 NAE          3.4660    -0.0010     1.2780 nv         1 65J      -0.995500
     11 CAS          1.8170     0.0010    -1.4030 cc         1 65J      -0.062400
     12 CAC          3.2310     0.0010    -1.9260 c3         1 65J      -0.037900
     13 CAT          0.6850     0.0010    -2.1420 cd         1 65J       0.001500
     14 SAN          0.6200    -0.0000    -3.9030 ss         1 65J      -0.152500
     15 CAQ          1.4630     1.4870    -4.3300 ca         1 65J       0.045900
     16 CAI          1.6170     1.8400    -5.6650 ca         1 65J      -0.145000
     17 CAH          1.9700     2.3120    -3.3330 ca         1 65J      -0.180000
     18 CAF          2.6300     3.4770    -3.6690 ca         1 65J      -0.078000
     19 CAG          2.7900     3.8270    -4.9960 ca         1 65J      -0.227000
     20 CAO          2.2810     3.0090    -5.9980 ca         1 65J       0.151100
     21 OAM          2.4380     3.3550    -7.3020 os         1 65J      -0.327900
     22 CAB          3.1370     4.5720    -7.5720 c3         1 65J       0.129700
     23 H1          -3.2190     1.5720    -1.3660 hc         1 65J       0.047367
     24 H2          -1.5430     2.1200    -1.5090 hc         1 65J       0.047367
     25 H3          -2.4500     1.6610    -2.9570 hc         1 65J       0.047367
     26 H4          -1.8800    -0.5090    -2.7060 h1         1 65J       0.068700
     27 H5          -2.4170    -0.5100    -1.0210 h1         1 65J       0.068700
     28 H6          -1.6090    -0.3450     3.5240 hn         1 65J       0.447800
     29 H7          -0.2360     0.3300     4.3380 hn         1 65J       0.447800
     30 H8           3.9970    -0.0330     0.4300 hn         1 65J       0.443800
     31 H9           3.9360     0.0260     2.1610 hn         1 65J       0.443800
     32 H10          3.7230     0.9220    -1.6380 hc         1 65J       0.049033
     33 H11          3.2170    -0.0780    -3.0060 hc         1 65J       0.049033
     34 H12          3.7700    -0.8420    -1.5100 hc         1 65J       0.049033
     35 H13          1.2200     1.2000    -6.4440 ha         1 65J       0.150000
     36 H14          1.8470     2.0400    -2.2920 ha         1 65J       0.154000
     37 H15          3.0260     4.1170    -2.8900 ha         1 65J       0.132000
     38 H16          3.3090     4.7420    -5.2560 ha         1 65J       0.135000
     39 H17          2.6100     5.4000    -7.1140 h1         1 65J       0.042033
     40 H18          3.1920     4.7270    -8.6430 h1         1 65J       0.042033
     41 H19          4.1390     4.5110    -7.1640 h1         1 65J       0.042033
     42 CAJ         -1.8040     0.0010    -1.7540 c3         1 65J       0.047300
@<TRIPOS>BOND
     1     9     8 1   
     2     8     5 ar  
     3     8     4 ar  
     4     5     1 ar  
     5     6    42 1   
     6     4     3 ar  
     7    42     7 1   
     8     1     7 1   
     9     1     2 ar  
    10     7    13 1   
    11     3     2 ar  
    12     3    10 1   
    13     2    11 1   
    14    13    11 2   
    15    13    14 1   
    16    11    12 1   
    17    22    21 1   
    18    21    20 1   
    19    19    18 ar  
    20    19    20 ar  
    21    18    17 ar  
    22    20    16 ar  
    23    17    15 ar  
    24    16    15 ar  
    25    15    14 1   
    26     6    23 1   
    27     6    24 1   
    28     6    25 1   
    29    42    26 1   
    30    42    27 1   
    31     9    28 1   
    32     9    29 1   
    33    10    30 1   
    34    10    31 1   
    35    12    32 1   
    36    12    33 1   
    37    12    34 1   
    38    16    35 1   
    39    17    36 1   
    40    18    37 1   
    41    19    38 1   
    42    22    39 1   
    43    22    40 1   
    44    22    41 1   
@<TRIPOS>SUBSTRUCTURE
     1 65J         1 TEMP              0 ****  ****    0 ROOT
