@<TRIPOS>MOLECULE
65J
   42    44     1     0     0
SMALL
bcc


@<TRIPOS>ATOM
      1 C4           0.0000     0.0000     0.0000 ca         1 65J       0.364800
      2 C5           1.4060     0.0000     0.0000 ca         1 65J      -0.464400
      3 C6           2.0830     0.0000     1.2300 ca         1 65J       0.629200
      4 N1           1.3630    -0.0000     2.3480 nb         1 65J      -0.792000
      5 N3          -0.6380    -0.0050     1.1700 nb         1 65J      -0.758000
      6 CAA         -2.2890     1.4440    -1.9080 c3         1 65J      -0.014100
      7 NAW         -0.4080     0.0000    -1.3090 na         1 65J       0.339900
      8 C2           0.0370    -0.0000     2.3060 ca         1 65J       0.771900
      9 NAD         -0.6680    -0.0060     3.5010 nv         1 65J      -0.519500
     10 NAE          3.4660    -0.0010     1.2780 nv         1 65J      -0.512500
     11 CAS          1.8170     0.0010    -1.4030 cc         1 65J      -0.045400
     12 CAC          3.2310     0.0010    -1.9260 c3         1 65J       0.063100
     13 CAT          0.6850     0.0010    -2.1420 cd         1 65J      -0.146500
     14 SAN          0.6200    -0.0000    -3.9030 ss         1 65J      -0.262500
     15 CAQ          1.4630     1.4870    -4.3300 ca         1 65J       0.094900
     16 CAI          1.6170     1.8400    -5.6650 ca         1 65J      -0.117000
     17 CAH          1.9700     2.3120    -3.3330 ca         1 65J      -0.181000
     18 CAF          2.6300     3.4770    -3.6690 ca         1 65J      -0.042000
     19 CAG          2.7900     3.8270    -4.9960 ca         1 65J      -0.215000
     20 CAO          2.2810     3.0090    -5.9980 ca         1 65J       0.160100
     21 OAM          2.4380     3.3550    -7.3020 os         1 65J      -0.306900
     22 CAB          3.1370     4.5720    -7.5720 c3         1 65J       0.244700
     23 H1          -3.2190     1.5720    -1.3660 hc         1 65J       0.013700
     24 H2          -1.5430     2.1200    -1.5090 hc         1 65J       0.013700
     25 H3          -2.4500     1.6610    -2.9570 hc         1 65J       0.013700
     26 H4          -1.8800    -0.5090    -2.7060 h1         1 65J       0.044700
     27 H5          -2.4170    -0.5100    -1.0210 h1         1 65J       0.044700
     28 H6          -1.6090    -0.3450     3.5240 hn         1 65J       0.272300
     29 H7          -0.2360     0.3300     4.3380 hn         1 65J       0.272300
     30 H8           3.9970    -0.0330     0.4300 hn         1 65J       0.275800
     31 H9           3.9360     0.0260     2.1610 hn         1 65J       0.275800
     32 H10          3.7230     0.9220    -1.6380 hc         1 65J       0.017033
     33 H11          3.2170    -0.0780    -3.0060 hc         1 65J       0.017033
     34 H12          3.7700    -0.8420    -1.5100 hc         1 65J       0.017033
     35 H13          1.2200     1.2000    -6.4440 ha         1 65J       0.128000
     36 H14          1.8470     2.0400    -2.2920 ha         1 65J       0.142000
     37 H15          3.0260     4.1170    -2.8900 ha         1 65J       0.101000
     38 H16          3.3090     4.7420    -5.2560 ha         1 65J       0.121000
     39 H17          2.6100     5.4000    -7.1140 h1         1 65J      -0.001967
     40 H18          3.1920     4.7270    -8.6430 h1         1 65J      -0.001967
     41 H19          4.1390     4.5110    -7.1640 h1         1 65J      -0.001967
     42 CAJ         -1.8040     0.0010    -1.7540 c3         1 65J      -0.055700
@<TRIPOS>BOND
     1     1     2 ar  
     2     1     5 ar  
     3     1     7 1   
     4     2     3 ar  
     5     2    11 1   
     6     3     4 ar  
     7     3    10 1   
     8     4     8 ar  
     9     5     8 ar  
    10     6    23 1   
    11     6    24 1   
    12     6    25 1   
    13     6    42 1   
    14     7    13 1   
    15     7    42 1   
    16     8     9 1   
    17     9    28 1   
    18     9    29 1   
    19    10    30 1   
    20    10    31 1   
    21    11    12 1   
    22    11    13 2   
    23    12    32 1   
    24    12    33 1   
    25    12    34 1   
    26    13    14 1   
    27    14    15 1   
    28    15    16 ar  
    29    15    17 ar  
    30    16    20 ar  
    31    16    35 1   
    32    17    18 ar  
    33    17    36 1   
    34    18    19 ar  
    35    18    37 1   
    36    19    20 ar  
    37    19    38 1   
    38    20    21 1   
    39    21    22 1   
    40    22    39 1   
    41    22    40 1   
    42    22    41 1   
    43    26    42 1   
    44    27    42 1   
@<TRIPOS>SUBSTRUCTURE
     1 65J         1 TEMP              0 ****  ****    0 ROOT
