@<TRIPOS>MOLECULE
65K
   20    20     1     0     0
SMALL
bcc


@<TRIPOS>ATOM
      1 C26          0.0000     0.0000     0.0000 c          1 65K       0.950200
      2 O27          1.3470     0.0000     0.0000 o          1 65K      -0.822800
      3 C28         -0.7390     0.0000     1.2800 ca         1 65K      -0.091600
      4 C29         -0.0430     0.0010     2.4900 ca         1 65K      -0.133500
      5 C30         -2.8240    -0.0050     2.4720 ca         1 65K      -0.008500
      6 C31         -2.1280     0.0010     3.6800 ca         1 65K      -0.392900
      7 C32         -0.7330     0.0070     3.6810 ca         1 65K      -0.008500
      8 C33         -2.1360    -0.0050     1.2790 ca         1 65K      -0.133500
      9 C34         -2.8690     0.0020     4.9630 ce         1 65K       0.255800
     10 N35         -4.1710    -0.0030     4.9620 n2         1 65K      -0.586100
     11 N36         -2.1820     0.0080     6.1560 nz         1 65K       0.182400
     12 H291         0.8980     0.0010     1.9520 ha         1 65K       0.226000
     13 H301        -3.7640    -0.0080     3.0100 ha         1 65K       0.053500
     14 H321        -0.7300     0.0100     4.7640 ha         1 65K       0.053500
     15 H331        -2.1380    -0.0080     0.1960 ha         1 65K       0.226000
     16 H351        -4.6720    -0.0070     4.0960 hn         1 65K       0.394400
     17 H361        -1.6030    -0.8070     6.2130 hn         1 65K       0.219467
     18 OXT         -0.6060    -0.0050    -1.0530 o          1 65K      -0.822800
     19 H362        -2.8330     0.0070     6.9170 hn         1 65K       0.219467
     20 H363        -1.6100     0.8270     6.2080 hn         1 65K       0.219467
@<TRIPOS>BOND
     1     1     2 1   
     2     1     3 1   
     3     1    18 1   
     4     3     4 ar  
     5     3     8 ar  
     6     4     7 ar  
     7     4    12 1   
     8     5     6 ar  
     9     5     8 ar  
    10     5    13 1   
    11     6     7 ar  
    12     6     9 1   
    13     7    14 1   
    14     8    15 1   
    15     9    10 2   
    16     9    11 1   
    17    10    16 1   
    18    11    17 1   
    19    11    19 1   
    20    11    20 1   
@<TRIPOS>SUBSTRUCTURE
     1 65K         1 TEMP              0 ****  ****    0 ROOT
