@<TRIPOS>MOLECULE
molecule
   20    20     1     0     0
SMALL
bcc


@<TRIPOS>ATOM
      1 C26          0.0000     0.0000     0.0000 c          1 65K       0.860200
      2 O27          1.3470     0.0000     0.0000 o          1 65K      -0.784300
      3 C28         -0.7390     0.0000     1.2800 ca         1 65K      -0.083600
      4 C29         -0.0430     0.0010     2.4900 ca         1 65K      -0.151000
      5 C30         -2.8240    -0.0050     2.4720 ca         1 65K      -0.050500
      6 C31         -2.1280     0.0010     3.6800 ca         1 65K      -0.318900
      7 C32         -0.7330     0.0070     3.6810 ca         1 65K      -0.050500
      8 C33         -2.1360    -0.0050     1.2790 ca         1 65K      -0.151000
      9 C34         -2.8690     0.0020     4.9630 ce         1 65K       0.561800
     10 N35         -4.1710    -0.0030     4.9620 n2         1 65K      -0.736100
     11 N36         -2.1820     0.0080     6.1560 nz         1 65K      -0.801600
     12 H291         0.8980     0.0010     1.9520 ha         1 65K       0.249000
     13 H301        -3.7640    -0.0080     3.0100 ha         1 65K       0.101000
     14 H321        -0.7300     0.0100     4.7640 ha         1 65K       0.101000
     15 H331        -2.1380    -0.0080     0.1960 ha         1 65K       0.249000
     16 H351        -4.6730    -0.0020     5.8280 hn         1 65K       0.412400
     17 H361        -1.6100     0.8280     6.2080 hn         1 65K       0.458800
     18 OXT         -0.6060    -0.0050    -1.0530 o          1 65K      -0.784300
     19 H362        -1.6030    -0.8070     6.2120 hn         1 65K       0.458800
     20 H363        -2.8320     0.0070     6.9170 hn         1 65K       0.458800
@<TRIPOS>BOND
     1     1     3 1   
     2     1     2 1   
     3     3     4 ar  
     4     3     8 ar  
     5     4     5 ar  
     6     5     6 ar  
     7     6     9 1   
     8     6     7 ar  
     9     7     8 ar  
    10     9    11 1   
    11     9    10 2   
    12     4    12 1   
    13     5    13 1   
    14     7    14 1   
    15     8    15 1   
    16    10    16 1   
    17    11    17 1   
    18     1    18 1   
    19    11    19 1   
    20    20    11 1   
@<TRIPOS>SUBSTRUCTURE
     1 65K         1 TEMP              0 ****  ****    0 ROOT
