@<TRIPOS>MOLECULE
molecule
   38    40     1     0     0
SMALL
bcc


@<TRIPOS>ATOM
      1 C4           0.0000     0.0000     0.0000 ca         1 65N       0.337300
      2 C5           1.4140     0.0000     0.0000 ca         1 65N       0.158000
      3 C6           2.0800     0.0000     1.2530 ca         1 65N       0.706900
      4 N1           1.3480    -0.0010     2.3560 nb         1 65N      -0.770000
      5 N3          -0.6510    -0.0010     1.1710 nb         1 65N      -0.741000
      6 FAD          5.2340    -4.0380    -7.1380 f          1 65N      -0.207300
      7 CAY          4.0030    -4.6850    -7.2980 c3         1 65N       0.794700
      8 FAE          3.2100    -3.9600    -8.1940 f          1 65N      -0.207300
      9 FAF          4.2150    -5.9730    -7.7990 f          1 65N      -0.207300
     10 CAS          3.0590    -3.5940    -5.4070 ca         1 65N       0.072100
     11 CAH          3.4080    -2.3890    -6.0010 ca         1 65N      -0.124500
     12 CAJ          3.1220    -1.1970    -5.3650 ca         1 65N      -0.161500
     13 CAG          2.4170    -3.6020    -4.1770 ca         1 65N      -0.124500
     14 CAI          2.1300    -2.4110    -3.5400 ca         1 65N      -0.161500
     15 CAT          2.4840    -1.2050    -4.1310 ca         1 65N       0.189600
     16 CAA          2.6680     1.2690    -4.0500 c3         1 65N       0.239100
     17 CAU          1.4550     0.0020    -2.3080 ca         1 65N       0.654200
     18 NAO          2.0850     0.0000    -1.1510 nb         1 65N      -0.655000
     19 NAC          3.4580    -0.0010     1.3200 nv         1 65N      -1.066500
     20 C2           0.0190    -0.0010     2.3070 ca         1 65N       0.947900
     21 NAB         -0.6900    -0.0020     3.4970 nv         1 65N      -1.060500
     22 CAL         -0.6830    -0.0050    -1.2300 ca         1 65N      -0.141300
     23 CAK          0.0540    -0.0050    -2.3780 ca         1 65N      -0.223300
     24 H1           3.9050    -2.3840    -6.9630 ha         1 65N       0.149000
     25 H2           3.3960    -0.2570    -5.8270 ha         1 65N       0.143000
     26 H3           2.1410    -4.5430    -3.7160 ha         1 65N       0.149000
     27 H4           1.6310    -2.4170    -2.5790 ha         1 65N       0.143000
     28 H5           2.2180     1.4200    -5.0240 h1         1 65N       0.041367
     29 H6           3.7440     1.2070    -4.1550 h1         1 65N       0.041367
     30 H7           2.4150     2.0990    -3.4030 h1         1 65N       0.041367
     31 H8           3.9610     0.8640     1.2870 hn         1 65N       0.447800
     32 H9           3.9520    -0.8630     1.4370 hn         1 65N       0.447800
     33 H10         -0.9350    -0.8690     3.9320 hn         1 65N       0.446300
     34 H11         -0.9560     0.8640     3.9210 hn         1 65N       0.446300
     35 H12         -1.7660    -0.0100    -1.2650 ha         1 65N       0.162000
     36 H13         -0.4400     0.0630    -3.3390 ha         1 65N       0.154000
     37 NAX          2.1930     0.0030    -3.4850 nh         1 65N      -0.722700
     38 OAP          3.3410    -4.7670    -6.0340 os         1 65N      -0.339900
@<TRIPOS>BOND
     1    16    37 1   
     2    12    11 ar  
     3    12    15 ar  
     4    11    10 ar  
     5    38    10 1   
     6    38     7 1   
     7    10    13 ar  
     8    15    37 1   
     9    15    14 ar  
    10    37    17 1   
    11    13    14 ar  
    12     6     7 1   
    13     7     9 1   
    14     7     8 1   
    15    17    18 ar  
    16    17    23 ar  
    17    18     2 ar  
    18    19     3 1   
    19    23    22 ar  
    20     2     3 ar  
    21     2     1 ar  
    22     3     4 ar  
    23    22     1 ar  
    24     1     5 ar  
    25     4    20 ar  
    26     5    20 ar  
    27    20    21 1   
    28    11    24 1   
    29    12    25 1   
    30    13    26 1   
    31    14    27 1   
    32    16    28 1   
    33    16    29 1   
    34    16    30 1   
    35    19    31 1   
    36    19    32 1   
    37    21    33 1   
    38    21    34 1   
    39    22    35 1   
    40    23    36 1   
@<TRIPOS>SUBSTRUCTURE
     1 65N         1 TEMP              0 ****  ****    0 ROOT
