@<TRIPOS>MOLECULE
65N
   38    40     1     0     0
SMALL
bcc


@<TRIPOS>ATOM
      1 C4           0.0000     0.0000     0.0000 ca         1 65N       0.299300
      2 C5           1.4140     0.0000     0.0000 ca         1 65N       0.118000
      3 C6           2.0800     0.0000     1.2530 ca         1 65N       0.512900
      4 N1           1.3480    -0.0010     2.3560 nb         1 65N      -0.641000
      5 N3          -0.6510    -0.0010     1.1710 nb         1 65N      -0.617000
      6 FAD          5.2340    -4.0380    -7.1380 f          1 65N      -0.199300
      7 CAY          4.0030    -4.6850    -7.2980 c3         1 65N       0.754700
      8 FAE          3.2100    -3.9600    -8.1940 f          1 65N      -0.199300
      9 FAF          4.2150    -5.9730    -7.7990 f          1 65N      -0.199300
     10 CAS          3.0590    -3.5940    -5.4070 ca         1 65N       0.080100
     11 CAH          3.4080    -2.3890    -6.0010 ca         1 65N      -0.107500
     12 CAJ          3.1220    -1.1970    -5.3650 ca         1 65N      -0.140000
     13 CAG          2.4170    -3.6020    -4.1770 ca         1 65N      -0.107500
     14 CAI          2.1300    -2.4110    -3.5400 ca         1 65N      -0.140000
     15 CAT          2.4840    -1.2050    -4.1310 ca         1 65N       0.052600
     16 CAA          2.6680     1.2690    -4.0500 c3         1 65N       0.208100
     17 CAU          1.4550     0.0020    -2.3080 ca         1 65N       0.473200
     18 NAO          2.0850     0.0000    -1.1510 nb         1 65N      -0.521000
     19 NAC          3.4580    -0.0010     1.3200 nv         1 65N      -0.636500
     20 C2           0.0190    -0.0010     2.3070 ca         1 65N       0.727900
     21 NAB         -0.6900    -0.0020     3.4970 nv         1 65N      -0.642500
     22 CAL         -0.6830    -0.0050    -1.2300 ca         1 65N      -0.116300
     23 CAK          0.0540    -0.0050    -2.3780 ca         1 65N      -0.191300
     24 H1           3.9050    -2.3840    -6.9630 ha         1 65N       0.121000
     25 H2           3.3960    -0.2570    -5.8270 ha         1 65N       0.118500
     26 H3           2.1410    -4.5430    -3.7160 ha         1 65N       0.121000
     27 H4           1.6310    -2.4170    -2.5790 ha         1 65N       0.118500
     28 H5           2.2180     1.4200    -5.0240 h1         1 65N       0.008700
     29 H6           3.7440     1.2070    -4.1550 h1         1 65N       0.008700
     30 H7           2.4150     2.0990    -3.4030 h1         1 65N       0.008700
     31 H8           3.9610     0.8640     1.2870 hn         1 65N       0.284800
     32 H9           3.9520    -0.8630     1.4370 hn         1 65N       0.284800
     33 H10         -0.9350    -0.8690     3.9320 hn         1 65N       0.282300
     34 H11         -0.9560     0.8640     3.9210 hn         1 65N       0.282300
     35 H12         -1.7660    -0.0100    -1.2650 ha         1 65N       0.128000
     36 H13         -0.4400     0.0630    -3.3390 ha         1 65N       0.124000
     37 NAX          2.1930     0.0030    -3.4850 nh         1 65N      -0.348700
     38 OAP          3.3410    -4.7670    -6.0340 os         1 65N      -0.312900
@<TRIPOS>BOND
     1     1     2 ar  
     2     1     5 ar  
     3     1    22 ar  
     4     2     3 ar  
     5     2    18 ar  
     6     3     4 ar  
     7     3    19 1   
     8     4    20 ar  
     9     5    20 ar  
    10     6     7 1   
    11     7     8 1   
    12     7     9 1   
    13     7    38 1   
    14    10    11 ar  
    15    10    13 ar  
    16    10    38 1   
    17    11    12 ar  
    18    11    24 1   
    19    12    15 ar  
    20    12    25 1   
    21    13    14 ar  
    22    13    26 1   
    23    14    15 ar  
    24    14    27 1   
    25    15    37 1   
    26    16    28 1   
    27    16    29 1   
    28    16    30 1   
    29    16    37 1   
    30    17    18 ar  
    31    17    23 ar  
    32    17    37 1   
    33    19    31 1   
    34    19    32 1   
    35    20    21 1   
    36    21    33 1   
    37    21    34 1   
    38    22    23 ar  
    39    22    35 1   
    40    23    36 1   
@<TRIPOS>SUBSTRUCTURE
     1 65N         1 TEMP              0 ****  ****    0 ROOT
