@<TRIPOS>MOLECULE
molecule
   37    40     1     0     0
SMALL
bcc


@<TRIPOS>ATOM
      1 C4           0.0000     0.0000     0.0000 ca         1 65O       0.519600
      2 C5           1.3960     0.0000     0.0000 ca         1 65O      -0.331400
      3 C6           2.0570     0.0000     1.2550 ca         1 65O       0.761200
      4 N1           1.3310    -0.0000     2.3630 nb         1 65O      -0.774000
      5 N3          -0.6520    -0.0010     1.1710 nb         1 65O      -0.728000
      6 CAQ          1.9400     0.0010    -1.3470 cc         1 65O      -0.045400
      7 NAC          3.4390    -0.0000     1.3210 nv         1 65O      -1.080500
      8 C2           0.0050    -0.0000     2.3150 ca         1 65O       0.946900
      9 NAB         -0.7110    -0.0020     3.5020 nv         1 65O      -1.057500
     10 SAN         -0.5960     0.0080    -1.6530 ss         1 65O      -0.114900
     11 CAS          1.0290     0.0020    -2.3110 cd         1 65O       0.037200
     12 SAM          1.4040     0.0030    -4.0340 ss         1 65O      -0.150500
     13 CAR         -0.1820     0.1620    -4.7850 ca         1 65O      -0.036100
     14 CAU         -0.8450     1.4100    -4.7930 ca         1 65O      -0.001000
     15 CAJ         -0.2650     2.5460    -4.2100 ca         1 65O      -0.123000
     16 CAE         -0.9330     3.7330    -4.2370 ca         1 65O      -0.112000
     17 CAD         -2.1860     3.8370    -4.8350 ca         1 65O      -0.126000
     18 CAH         -2.7790     2.7540    -5.4100 ca         1 65O      -0.112000
     19 CAT         -2.1190     1.5140    -5.4020 ca         1 65O      -0.047000
     20 CAI         -2.7020     0.3760    -5.9870 ca         1 65O      -0.078000
     21 CAF         -2.0400    -0.8150    -5.9650 ca         1 65O      -0.149000
     22 CAG         -0.7860    -0.9290    -5.3750 ca         1 65O      -0.053000
     23 H1           3.5870    -0.0430    -2.6960 hc         1 65O       0.047700
     24 H2           3.8770    -0.8610    -1.1540 hc         1 65O       0.047700
     25 H3           3.8630     0.9070    -1.2290 hc         1 65O       0.047700
     26 H4           3.9370     0.8670     1.3670 hn         1 65O       0.441800
     27 H5           3.9360    -0.8660     1.3810 hn         1 65O       0.441800
     28 H6          -0.9880    -0.8680     3.9180 hn         1 65O       0.444800
     29 H7          -0.9510     0.8650     3.9420 hn         1 65O       0.444800
     30 H8           0.7090     2.4800    -3.7410 ha         1 65O       0.152000
     31 H9          -0.4820     4.6090    -3.7870 ha         1 65O       0.132000
     32 H10         -2.6960     4.7920    -4.8440 ha         1 65O       0.131000
     33 H11         -3.7550     2.8480    -5.8720 ha         1 65O       0.134000
     34 H12         -3.6780     0.4450    -6.4520 ha         1 65O       0.136000
     35 H13         -2.4940    -1.6860    -6.4220 ha         1 65O       0.135000
     36 H14         -0.2810    -1.8880    -5.3710 ha         1 65O       0.144000
     37 CAA          3.4210     0.0010    -1.6260 c3         1 65O      -0.026900
@<TRIPOS>BOND
     1    21    20 ar  
     2    21    22 ar  
     3    20    19 ar  
     4    22    13 ar  
     5    19    18 ar  
     6    19    14 ar  
     7    18    17 ar  
     8    13    14 ar  
     9    13    12 1   
    10    14    15 ar  
    11    37     6 1   
    12    17    16 ar  
    13    12    11 1   
    14    15    16 ar  
    15     6    11 2   
    16     6     2 1   
    17    11    10 1   
    18     7     3 1   
    19     2     3 ar  
    20     2     1 ar  
    21     3     4 ar  
    22    10     1 1   
    23     1     5 ar  
    24     4     8 ar  
    25     5     8 ar  
    26     8     9 1   
    27    37    23 1   
    28    37    24 1   
    29    37    25 1   
    30     7    26 1   
    31     7    27 1   
    32     9    28 1   
    33     9    29 1   
    34    15    30 1   
    35    16    31 1   
    36    17    32 1   
    37    18    33 1   
    38    20    34 1   
    39    21    35 1   
    40    22    36 1   
@<TRIPOS>SUBSTRUCTURE
     1 65O         1 TEMP              0 ****  ****    0 ROOT
