@<TRIPOS>MOLECULE
molecule
   70    74     1     0     0
SMALL
bcc


@<TRIPOS>ATOM
      1 C13          0.0000     0.0000     0.0000 ca         1 65P      -0.081000
      2 C15          1.3830     0.0000     0.0000 ca         1 65P      -0.144000
      3 C17          2.0740     0.0000     1.1990 ca         1 65P       0.098900
      4 C21         -0.0050     0.0080     2.3950 ca         1 65P      -0.133000
      5 C28         -3.5720     4.4270    -0.4610 cp         1 65P       0.047000
      6 C05         -2.8820     2.8640    -2.1430 ca         1 65P       0.494600
      7 N06         -2.6480     1.9440    -1.2310 nb         1 65P      -0.754000
      8 C07         -2.8460     2.1690     0.0620 ca         1 65P       0.463800
      9 N08         -2.6820     1.3970     1.1860 na         1 65P      -0.181100
     10 C12         -0.6930     0.0070     1.1960 ca         1 65P      -0.101300
     11 F18          3.4250     0.0010     1.2000 f          1 65P      -0.135900
     12 C19          1.3790     0.0020     2.3980 ca         1 65P       0.084900
     13 F20          2.0520     0.0020     3.5700 f          1 65P      -0.138900
     14 C23         -3.0350     2.1100     2.3010 cc         1 65P      -0.126100
     15 C25         -3.4120     3.3490     1.9480 cd         1 65P      -0.175200
     16 C27         -3.3130     3.4250     0.4920 ca         1 65P      -0.219100
     17 C29         -4.0630     5.7630    -0.0530 cp         1 65P      -0.057000
     18 C30         -3.1570     6.7830     0.2390 ca         1 65P      -0.028000
     19 C32         -3.6210     8.0220     0.6190 ca         1 65P      -0.166000
     20 C34         -4.9890     8.2640     0.7160 ca         1 65P       0.136100
     21 O35         -5.4010     9.5000     1.1010 os         1 65P      -0.337900
     22 C36         -6.7590     9.8620     0.8470 c3         1 65P       0.144400
     23 C39         -7.6630     8.7290     1.3510 c3         1 65P      -0.125400
     24 C42         -7.3800     7.4790     0.5130 c3         1 65P      -0.023100
     25 C45         -5.8910     7.2530     0.4240 ca         1 65P      -0.181300
     26 C46         -5.4310     6.0090     0.0380 ca         1 65P      -0.040300
     27 C47         -6.4140     4.9110    -0.2820 c3         1 65P      -0.051800
     28 C51         -3.3470     4.1230    -1.8050 ca         1 65P      -0.154600
     29 C52         -3.6060     5.1530    -2.8730 c3         1 65P       0.073400
     30 O54         -4.3110     4.5460    -3.9580 os         1 65P      -0.414600
     31 C55         -5.1750     5.4390    -4.6630 c3         1 65P       0.156800
     32 C56         -4.3530     6.5890    -5.2470 c3         1 65P      -0.105433
     33 C60         -5.8740     4.6860    -5.7960 c3         1 65P      -0.105433
     34 C64         -6.2240     5.9990    -3.7000 c3         1 65P      -0.105433
     35 C68         -2.2950     5.7010    -3.3720 c          1 65P       0.878600
     36 O69         -1.9520     5.5060    -4.5140 o          1 65P      -0.833300
     37 O71         -1.5050     6.4070    -2.5460 o          1 65P      -0.833300
     38 H1          -0.5410    -0.0000    -0.9390 ha         1 65P       0.169000
     39 H2           1.9250    -0.0050    -0.9380 ha         1 65P       0.155000
     40 H3          -0.5490     0.0110     3.3310 ha         1 65P       0.144000
     41 H4          -2.1730     1.5630    -3.6710 hc         1 65P       0.064367
     42 H5          -1.9900     3.2860    -4.0290 hc         1 65P       0.064367
     43 H6          -3.5850     2.5280    -4.1240 hc         1 65P       0.064367
     44 H7          -2.5660    -0.4930     2.0790 h1         1 65P       0.062700
     45 H8          -2.5620    -0.5000     0.3090 h1         1 65P       0.062700
     46 H9          -3.0130     1.7310     3.3150 h4         1 65P       0.151000
     47 H10         -3.7440     4.1370     2.6140 ha         1 65P       0.150000
     48 H11         -2.0920     6.5850     0.2190 ha         1 65P       0.171000
     49 H12         -2.9170     8.8140     0.8460 ha         1 65P       0.139000
     50 H13         -6.9960    10.7780     1.3750 h1         1 65P       0.048200
     51 H14         -6.9060     9.9980    -0.2170 h1         1 65P       0.048200
     52 H15         -8.6980     9.0170     1.2160 hc         1 65P       0.048200
     53 H16         -7.4240     8.5210     2.3870 hc         1 65P       0.048200
     54 H17         -7.7680     7.6350    -0.4870 hc         1 65P       0.049200
     55 H18         -7.8330     6.6240     0.9990 hc         1 65P       0.049200
     56 H19         -5.9110     4.1230    -0.8280 hc         1 65P       0.043367
     57 H20         -7.2200     5.3110    -0.8860 hc         1 65P       0.043367
     58 H21         -6.8190     4.5100     0.6400 hc         1 65P       0.043367
     59 H22         -4.2020     5.9590    -2.4620 h1         1 65P       0.053700
     60 H23         -3.9210     7.1700    -4.4410 hc         1 65P       0.037589
     61 H24         -4.9940     7.2240    -5.8460 hc         1 65P       0.037589
     62 H25         -3.5600     6.1880    -5.8670 hc         1 65P       0.037589
     63 H26         -6.4410     3.8590    -5.3850 hc         1 65P       0.037589
     64 H27         -6.5440     5.3590    -6.3170 hc         1 65P       0.037589
     65 H28         -5.1330     4.3060    -6.4890 hc         1 65P       0.037589
     66 H29         -6.4960     5.2380    -2.9790 hc         1 65P       0.037589
     67 H30         -5.8160     6.8580    -3.1810 hc         1 65P       0.037589
     68 H31         -7.1030     6.2990    -4.2580 hc         1 65P       0.037589
     69 C09         -2.2000     0.0130     1.1930 c3         1 65P       0.106600
     70 C01         -2.6410     2.5370    -3.5940 c3         1 65P      -0.147400
@<TRIPOS>BOND
     1    13    12 1
     2    11     3 1
     3    24    23 1
     4    24    25 1
     5    23    22 1
     6    27    26 1
     7    36    35 1
     8    12     3 ar
     9    12     4 ar
    10     3     2 ar
    11    37    35 1
    12    35    29 1
    13    22    21 1
    14    25    26 ar
    15    25    20 ar
    16    26    17 ar
    17     4    10 ar
    18     2     1 ar
    19    29    28 1
    20    29    30 1
    21    21    20 1
    22    20    19 ar
    23    17     5 1
    24    17    18 ar
    25    28     5 ar
    26    28     6 ar
    27    10     1 ar
    28    10    69 1
    29     5    16 ar
    30    70     6 1
    31     6     7 ar
    32    16    15 1
    33    16     8 ar
    34     7     8 ar
    35    30    31 1
    36    15    14 2
    37     8     9 1
    38     9    14 1
    39     9    69 1
    40    19    18 ar
    41    33    31 1
    42    31    32 1
    43    31    34 1
    44     1    38 1
    45     2    39 1
    46     4    40 1
    47    70    41 1
    48    70    42 1
    49    70    43 1
    50    69    44 1
    51    69    45 1
    52    14    46 1
    53    15    47 1
    54    18    48 1
    55    19    49 1
    56    22    50 1
    57    22    51 1
    58    23    52 1
    59    23    53 1
    60    24    54 1
    61    24    55 1
    62    27    56 1
    63    27    57 1
    64    27    58 1
    65    29    59 1
    66    32    60 1
    67    32    61 1
    68    32    62 1
    69    33    63 1
    70    33    64 1
    71    33    65 1
    72    34    66 1
    73    34    67 1
    74    34    68 1
@<TRIPOS>SUBSTRUCTURE
     1 65P         1 TEMP              0 ****  ****    0 ROOT
