@<TRIPOS>MOLECULE
molecule
   35    37     1     0     0
SMALL
bcc


@<TRIPOS>ATOM
      1 C4           0.0000     0.0000     0.0000 ca         1 65Q       0.555600
      2 C5           1.3970     0.0000     0.0000 ca         1 65Q      -0.383400
      3 C6           2.0550     0.0000     1.2570 ca         1 65Q       0.777200
      4 N1           1.3290    -0.0010     2.3640 nb         1 65Q      -0.829000
      5 N3          -0.6530    -0.0060     1.1700 nb         1 65Q      -0.765000
      6 FAD         -4.6750     2.2050    -5.6860 f          1 65Q      -0.203633
      7 CAX         -3.7390     2.8350    -6.5150 c3         1 65Q       0.794700
      8 FAE         -3.6970     2.1810    -7.7510 f          1 65Q      -0.203633
      9 FAF         -4.1110     4.1710    -6.7060 f          1 65Q      -0.203633
     10 CAQ         -1.9380     1.5490    -5.6470 ca         1 65Q       0.111100
     11 CAJ         -0.6930     1.4260    -5.0500 ca         1 65Q      -0.080000
     12 CAH         -2.6650     0.4140    -5.9790 ca         1 65Q      -0.169000
     13 CAG         -2.1460    -0.8410    -5.7190 ca         1 65Q      -0.104000
     14 CAI         -0.9040    -0.9700    -5.1280 ca         1 65Q      -0.093000
     15 CAR         -0.1760     0.1640    -4.7860 ca         1 65Q      -0.010100
     16 CAU          1.0320     0.0010    -2.3110 cc         1 65Q       0.030200
     17 SAO         -0.5940    -0.0010    -1.6540 ss         1 65Q      -0.122900
     18 C2           0.0030    -0.0020     2.3140 ca         1 65Q       0.982900
     19 NAB         -0.7140    -0.0090     3.5010 nv         1 65Q      -1.056500
     20 NAC          3.4380     0.0000     1.3240 nv         1 65Q      -1.004500
     21 CAT          1.9420     0.0010    -1.3460 cd         1 65Q      -0.038400
     22 CAA          3.4230     0.0030    -1.6230 c3         1 65Q      -0.043900
     23 H1          -0.1280     2.3110    -4.7850 ha         1 65Q       0.163000
     24 H2          -3.6390     0.5110    -6.4420 ha         1 65Q       0.154000
     25 H3          -2.7140    -1.7260    -5.9810 ha         1 65Q       0.145000
     26 H4          -0.5010    -1.9540    -4.9230 ha         1 65Q       0.151000
     27 H5          -0.8730     0.8470     3.9940 hn         1 65Q       0.445800
     28 H6          -1.0730    -0.8700     3.8630 hn         1 65Q       0.445800
     29 H7           3.8970     0.2290     2.1840 hn         1 65Q       0.446800
     30 H8           3.9780    -0.2710     0.5260 hn         1 65Q       0.446800
     31 H9           3.5910     0.0660    -2.6910 hc         1 65Q       0.050700
     32 H10          3.8630    -0.9100    -1.2410 hc         1 65Q       0.050700
     33 H11          3.8800     0.8560    -1.1350 hc         1 65Q       0.050700
     34 SAN          1.4090     0.0010    -4.0330 ss         1 65Q      -0.151500
     35 OAM         -2.4490     2.7820    -5.9030 os         1 65Q      -0.337900
@<TRIPOS>BOND
     1    19    18 1   
     2    18     5 ar  
     3    18     4 ar  
     4     5     1 ar  
     5     4     3 ar  
     6     1    17 1   
     7     1     2 ar  
     8    17    16 1   
     9     3     2 ar  
    10     3    20 1   
    11     2    21 1   
    12    16    21 2   
    13    16    34 1   
    14    21    22 1   
    15    34    15 1   
    16    15    14 ar  
    17    15    11 ar  
    18     9     7 1   
    19    14    13 ar  
    20    11    10 ar  
    21     6     7 1   
    22    13    12 ar  
    23     7    35 1   
    24     7     8 1   
    25    10    12 ar  
    26    10    35 1   
    27    11    23 1   
    28    12    24 1   
    29    13    25 1   
    30    14    26 1   
    31    19    27 1   
    32    19    28 1   
    33    20    29 1   
    34    20    30 1   
    35    22    31 1   
    36    22    32 1   
    37    22    33 1   
@<TRIPOS>SUBSTRUCTURE
     1 65Q         1 TEMP              0 ****  ****    0 ROOT
