@<TRIPOS>MOLECULE
molecule
   59    62     1     0     0
SMALL
bcc


@<TRIPOS>ATOM
      1 C4           0.0000     0.0000     0.0000 ca         1 65R      -0.141000
      2 C5           1.3880     0.0000     0.0000 ca         1 65R       0.149100
      3 C6           2.0780     0.0000     1.2020 ca         1 65R      -0.214000
      4 C8           3.4950     0.0020    -1.1000 c3         1 65R       0.137400
      5 C10          5.6090     0.0050    -2.4310 c3         1 65R      -0.075400
      6 C13          6.4750     1.3370    -5.9380 c3         1 65R       0.158800
      7 C15          8.3050    -0.0570    -5.1790 c3         1 65R       0.158800
      8 C21         -4.4850    -2.9750     1.2100 cc         1 65R       0.572300
      9 C24         -4.9060    -5.4310     1.2190 cc         1 65R      -0.223400
     10 C26         -7.3700    -5.1660     1.2250 ca         1 65R      -0.080500
     11 C28         -8.9090    -7.0000     1.2540 ca         1 65R       0.415200
     12 C1           1.3840    -0.0020     2.3970 ca         1 65R      -0.086000
     13 C2           0.0020    -0.0030     2.3940 ca         1 65R      -0.148000
     14 C3          -0.6900     0.0040     1.1970 ca         1 65R      -0.043300
     15 O7           2.0680     0.0010    -1.1760 os         1 65R      -0.330900
     16 C9           4.0820     0.0030    -2.5130 c3         1 65R      -0.084400
     17 C11          6.1960     0.0050    -3.8440 c3         1 65R      -0.070700
     18 C12          5.8350     1.3160    -4.5470 c3         1 65R      -0.074900
     19 N14          7.9310     1.2160    -5.8090 n7         1 65R      -0.818200
     20 C16          7.7190    -0.1200    -3.7660 c3         1 65R      -0.074900
     21 C18         -2.6980    -1.4180     1.2030 c          1 65R       0.653100
     22 O19         -1.9090    -2.3400     1.2070 o          1 65R      -0.565100
     23 N20         -4.0230    -1.6650     1.2050 ns         1 65R      -0.521400
     24 N22         -5.7320    -3.3300     1.2120 nd         1 65R      -0.735000
     25 C23         -5.9890    -4.6310     1.2170 cd         1 65R       0.439800
     26 S25         -3.4680    -4.4130     1.2080 ss         1 65R      -0.106300
     27 C27         -7.6070    -6.5450     1.2410 ca         1 65R      -0.235800
     28 N29         -9.9220    -6.1550     1.2510 nb         1 65R      -0.693000
     29 C30         -9.7430    -4.8470     1.2310 ca         1 65R       0.415200
     30 C31         -8.4740    -4.3070     1.2220 ca         1 65R      -0.235800
     31 H1          -0.5420     0.0000    -0.9380 ha         1 65R       0.143000
     32 H2           3.1610     0.0010     1.2050 ha         1 65R       0.136000
     33 H3           3.8280     0.8870    -0.5710 h1         1 65R       0.035700
     34 H4           3.8290    -0.8820    -0.5710 h1         1 65R       0.035700
     35 H5           5.9440    -0.8790    -1.9010 hc         1 65R       0.044200
     36 H6           5.9410     0.8900    -1.9020 hc         1 65R       0.044200
     37 H8           6.2340     2.2720    -6.4300 h1         1 65R       0.031200
     38 H9           7.9140    -0.8780    -5.7670 h1         1 65R       0.031200
     39 H10          9.3840    -0.1270    -5.1240 h1         1 65R       0.031200
     40 H13         -4.9180    -6.5140     1.2220 h4         1 65R       0.182000
     41 H14         -9.1020    -8.0660     1.2690 h4         1 65R       0.022600
     42 H15          1.9240    -0.0040     3.3370 ha         1 65R       0.132000
     43 H16         -0.5410    -0.0020     3.3320 ha         1 65R       0.130000
     44 H17          3.7470     0.8860    -3.0430 hc         1 65R       0.057200
     45 H18          3.7500    -0.8830    -3.0420 hc         1 65R       0.057200
     46 H19          5.7940    -0.8290    -4.4080 hc         1 65R       0.050700
     47 H20          4.7580     1.3880    -4.6450 hc         1 65R       0.049950
     48 H21          6.2070     2.1510    -3.9660 hc         1 65R       0.049950
     49 H22          8.3530     1.2760    -6.7150 hn         1 65R       0.352800
     50 H24          8.1180     0.6940    -3.1740 hc         1 65R       0.049950
     51 H25          7.9800    -1.0680    -3.3100 hc         1 65R       0.049950
     52 H26         -4.6730    -0.9050     1.2030 hn         1 65R       0.343500
     53 H27         -6.7800    -7.2450     1.2440 ha         1 65R       0.146500
     54 H28        -10.6040    -4.1900     1.2290 h4         1 65R       0.022600
     55 H29         -8.3340    -3.2320     1.2050 ha         1 65R       0.146500
     56 C17         -2.1970     0.0030     1.1970 c3         1 65R      -0.099100
     57 H7           6.0950     0.5070    -6.5210 h1         1 65R       0.031200
     58 H11         -2.5580     0.5170     2.0790 hc         1 65R       0.074200
     59 H12         -2.5580     0.5090     0.3100 hc         1 65R       0.074200
@<TRIPOS>BOND
     1    11    28 ar
     2    11    27 ar
     3    28    29 ar
     4    27    10 ar
     5    29    30 ar
     6    10    30 ar
     7    10    25 1
     8     9    25 2
     9     9    26 1
    10    25    24 1
    11    26     8 1
    12    24     8 2
    13     8    23 1
    14    23    21 1
    15    22    21 2
    16    21    56 1
    17    56    14 1
    18    14     1 ar
    19    14    13 ar
    20     1     2 ar
    21    13    12 ar
    22     2    15 1
    23     2     3 ar
    24    12     3 ar
    25    15     4 1
    26    16     4 1
    27    16     5 1
    28    18     6 1
    29    18    17 1
    30     6    19 1
    31     5    17 1
    32    17    20 1
    33    19     7 1
    34    20     7 1
    35     1    31 1
    36     3    32 1
    37     4    33 1
    38     4    34 1
    39     5    35 1
    40     5    36 1
    41     6    57 1
    42     6    37 1
    43     7    38 1
    44     7    39 1
    45    56    58 1
    46    56    59 1
    47     9    40 1
    48    11    41 1
    49    12    42 1
    50    13    43 1
    51    16    44 1
    52    16    45 1
    53    17    46 1
    54    18    47 1
    55    18    48 1
    56    19    49 1
    57    20    50 1
    58    20    51 1
    59    23    52 1
    60    27    53 1
    61    29    54 1
    62    30    55 1
@<TRIPOS>SUBSTRUCTURE
     1 65R         1 TEMP              0 ****  ****    0 ROOT
