@<TRIPOS>MOLECULE
molecule
    9     8     1     0     0
SMALL
bcc


@<TRIPOS>ATOM
      1 O01          0.0000     0.0000     0.0000 o          1 65S      -0.811300
      2 C02          1.3460     0.0000     0.0000 c          1 65S       0.807600
      3 C03          2.0910     0.0000     1.2910 c          1 65S       0.442100
      4 C04          3.5980    -0.0000     1.2910 c3         1 65S       0.044900
      5 F05          4.0650     0.0000     2.6100 f          1 65S      -0.269300
      6 O06          1.4870     0.0000     2.3370 o          1 65S      -0.520100
      7 O07          1.9520    -0.0000    -1.0500 o          1 65S      -0.811300
      8 H2           3.9590     0.8850     0.7800 h1         1 65S       0.058700
      9 H3           3.9590    -0.8850     0.7800 h1         1 65S       0.058700
@<TRIPOS>BOND
     1     4     3 1   
     2     4     5 1   
     3     6     3 2   
     4     3     2 1   
     5     2     7 1   
     6     2     1 1   
     7     4     8 1   
     8     4     9 1   
@<TRIPOS>SUBSTRUCTURE
     1 65S         1 TEMP              0 ****  ****    0 ROOT
