@<TRIPOS>MOLECULE
molecule
   47    51     1     0     0
SMALL
bcc


@<TRIPOS>ATOM
      1 C2           0.0000     0.0000     0.0000 ca         1 65V       0.049800
      2 C3           1.3890     0.0000     0.0000 ca         1 65V      -0.157000
      3 C4           2.0790     0.0000     1.1980 ca         1 65V       0.132900
      4 C5           1.3830     0.0000     2.4010 ca         1 65V       0.058100
      5 C6          -0.0040     0.0000     2.3990 ca         1 65V      -0.115000
      6 C7          -0.6940     0.0050     1.2020 ca         1 65V      -0.151000
      7 O8           2.0610    -0.0060     3.5790 oh         1 65V      -0.506100
      8 F10          3.4300    -0.0010     1.1990 f          1 65V      -0.124900
      9 N12         -0.7010     0.0010    -1.2160 na         1 65V       0.130300
     10 C13         -2.0460     0.0000    -1.3730 cc         1 65V      -0.177600
     11 C14         -2.2850     0.0010    -2.7150 cd         1 65V       0.214300
     12 N15         -1.1070     0.0010    -3.3590 nd         1 65V      -0.317000
     13 N16         -0.1450     0.0060    -2.5030 nc         1 65V      -0.187800
     14 C17         -3.6210     0.0010    -3.3560 ca         1 65V       0.418300
     15 C18         -3.7100    -0.0040    -4.7560 ca         1 65V      -0.256300
     16 C19         -4.9330    -0.0040    -5.3590 ca         1 65V      -0.046000
     17 C20         -6.0790     0.0010    -4.5410 ca         1 65V      -0.175300
     18 C21         -5.9250     0.0060    -3.1330 ca         1 65V       0.452600
     19 N22         -4.7000     0.0010    -2.5970 nb         1 65V      -0.708000
     20 C23         -7.3730     0.0020    -5.0990 ca         1 65V       0.176100
     21 C24         -8.4700     0.0080    -4.2630 ca         1 65V      -0.221000
     22 C25         -8.3080     0.0120    -2.8810 ca         1 65V      -0.067000
     23 C26         -7.0690     0.0120    -2.3170 ca         1 65V      -0.232300
     24 O27         -7.5390    -0.0030    -6.4450 os         1 65V      -0.244200
     25 C28         -8.8070     0.0060    -6.9320 ca         1 65V       0.039100
     26 C29         -9.4450     1.2130    -7.1860 ca         1 65V      -0.159000
     27 C30        -10.7360     1.2290    -7.6820 ca         1 65V      -0.158000
     28 C31        -11.3990     0.0450    -7.9270 ca         1 65V      -0.087000
     29 C32        -10.7670    -1.1750    -7.6760 ca         1 65V      -0.096600
     30 C33         -9.4620    -1.1890    -7.1810 ca         1 65V      -0.106000
     31 C34        -11.4740    -2.4460    -7.9360 c          1 65V       0.881200
     32 O35        -12.7320    -2.4290    -8.4190 o          1 65V      -0.829300
     33 O36        -10.9210    -3.5040    -7.7170 o          1 65V      -0.829300
     34 H1           1.9310    -0.0380    -0.9370 ha         1 65V       0.179000
     35 H2          -0.5460    -0.0110     3.3360 ha         1 65V       0.153000
     36 H3          -1.7770     0.0140     1.2020 ha         1 65V       0.150000
     37 H4           2.1140     0.8740     3.9150 ho         1 65V       0.421000
     38 H5          -2.7880     0.0000    -0.5840 h4         1 65V       0.203000
     39 H6          -2.8110     0.0660    -5.3560 ha         1 65V       0.151000
     40 H7          -5.0210    -0.0080    -6.4390 ha         1 65V       0.159000
     41 H8          -9.4670     0.0080    -4.6860 ha         1 65V       0.166000
     42 H9          -9.1840     0.0170    -2.2430 ha         1 65V       0.130000
     43 H10         -6.9650     0.0160    -1.2380 ha         1 65V       0.135000
     44 H11         -8.9290     2.1470    -6.9960 ha         1 65V       0.117000
     45 H12        -11.2280     2.1740    -7.8770 ha         1 65V       0.114000
     46 H13        -12.4110     0.0600    -8.3130 ha         1 65V       0.160000
     47 H14         -8.9660    -2.1320    -6.9840 ha         1 65V       0.162000
@<TRIPOS>BOND
     1     7     4 1   
     2     4     5 ar  
     3     4     3 ar  
     4     5     6 ar  
     5     8     3 1   
     6     3     2 ar  
     7     6     1 ar  
     8     2     1 ar  
     9     1     9 1   
    10    13     9 1   
    11    13    12 2   
    12     9    10 1   
    13    12    11 1   
    14    10    11 2   
    15    11    14 1   
    16    14    19 ar  
    17    14    15 ar  
    18    19    18 ar  
    19    15    16 ar  
    20    18    23 ar  
    21    18    17 ar  
    22    23    22 ar  
    23    16    17 ar  
    24    17    20 ar  
    25    22    21 ar  
    26    20    21 ar  
    27    20    24 1   
    28    26    25 ar  
    29    26    27 ar  
    30    24    25 1   
    31    25    30 ar  
    32    27    28 ar  
    33    30    29 ar  
    34    28    29 ar  
    35    29    31 1   
    36    31    33 1   
    37    31    32 1   
    38     2    34 1   
    39     5    35 1   
    40     6    36 1   
    41     7    37 1   
    42    10    38 1   
    43    15    39 1   
    44    16    40 1   
    45    21    41 1   
    46    22    42 1   
    47    23    43 1   
    48    26    44 1   
    49    27    45 1   
    50    28    46 1   
    51    30    47 1   
@<TRIPOS>SUBSTRUCTURE
     1 65V         1 TEMP              0 ****  ****    0 ROOT
