@<TRIPOS>MOLECULE
molecule
   40    42     1     0     0
SMALL
bcc


@<TRIPOS>ATOM
      1 OAC          0.0000     0.0000     0.0000 o          1 65W      -0.826800
      2 CAQ          1.2080     0.0000     0.0000 c          1 65W       0.868600
      3 OAD          1.8800     0.0000     1.1610 o          1 65W      -0.826800
      4 CAW          1.9610    -0.0080    -1.3060 c3         1 65W       0.031800
      5 CAA          2.8410     1.2400    -1.3950 c3         1 65W      -0.079100
      6 CAB          2.8400    -1.2580    -1.3810 c3         1 65W      -0.079100
      7 OAP          1.0310    -0.0140    -2.3920 os         1 65W      -0.322900
      8 CAR          0.1950     1.0530    -2.4930 ca         1 65W       0.203100
      9 CAJ         -0.6500     1.1680    -3.5890 ca         1 65W      -0.180000
     10 CAL         -1.4990     2.2490    -3.6960 ca         1 65W      -0.092500
     11 CAI          0.1840     2.0210    -1.4980 ca         1 65W      -0.180000
     12 CAK         -0.6630     3.1040    -1.5980 ca         1 65W      -0.092500
     13 CAS         -1.5090     3.2270    -2.7000 cp         1 65W      -0.129000
     14 CAT         -2.4200     4.3890    -2.8120 cp         1 65W       0.025000
     15 CAV         -3.2490     4.7550    -1.7240 ca         1 65W      -0.036000
     16 CAO         -3.2320     4.0340    -0.5220 ca         1 65W      -0.094000
     17 CAF         -4.0440     4.4140     0.5050 ca         1 65W      -0.145000
     18 CAE         -4.8920     5.5110     0.3770 ca         1 65W      -0.125000
     19 CAM         -4.9350     6.2340    -0.7760 ca         1 65W      -0.139000
     20 CAU         -4.1110     5.8710    -1.8540 ca         1 65W      -0.030000
     21 CAN         -4.1300     6.5940    -3.0600 ca         1 65W      -0.146000
     22 CAG         -3.3220     6.2220    -4.0920 ca         1 65W      -0.120000
     23 CAH         -2.4660     5.1320    -3.9770 ca         1 65W      -0.149000
     24 H2           2.6520     1.7490    -2.3330 hc         1 65W       0.034533
     25 H3           2.6100     1.9040    -0.5710 hc         1 65W       0.034533
     26 H4           3.8840     0.9510    -1.3450 hc         1 65W       0.034533
     27 H5           2.2230    -2.1410    -1.2680 hc         1 65W       0.034533
     28 H6           3.3430    -1.2890    -2.3400 hc         1 65W       0.034533
     29 H7           3.5770    -1.2300    -0.5880 hc         1 65W       0.034533
     30 H8          -0.6410     0.4080    -4.3610 ha         1 65W       0.155500
     31 H9          -2.1560     2.3400    -4.5520 ha         1 65W       0.121500
     32 H10          0.8410     1.9250    -0.6420 ha         1 65W       0.155500
     33 H11         -0.6700     3.8600    -0.8220 ha         1 65W       0.121500
     34 H12         -2.5770     3.1790    -0.4100 ha         1 65W       0.172000
     35 H13         -4.0280     3.8560     1.4330 ha         1 65W       0.131000
     36 H14         -5.5270     5.7940     1.2080 ha         1 65W       0.115000
     37 H15         -5.6000     7.0850    -0.8610 ha         1 65W       0.119000
     38 H16         -4.7900     7.4460    -3.1700 ha         1 65W       0.118000
     39 H17         -3.3400     6.7900    -5.0140 ha         1 65W       0.114000
     40 H18         -1.8330     4.8580    -4.8130 ha         1 65W       0.131000
@<TRIPOS>BOND
     1    21    22 ar  
     2    21    20 ar  
     3    22    23 ar  
     4    19    20 ar  
     5    19    18 ar  
     6    20    15 ar  
     7    23    14 ar  
     8    18    17 ar  
     9    15    14 ar  
    10    15    16 ar  
    11    14    13 1   
    12    17    16 ar  
    13    13    10 ar  
    14    13    12 ar  
    15    10     9 ar  
    16    12    11 ar  
    17     9     8 ar  
    18    11     8 ar  
    19     8     7 1   
    20     6     4 1   
    21     7     4 1   
    22     1     2 1   
    23     2     4 1   
    24     2     3 1   
    25     4     5 1   
    26     5    24 1   
    27     5    25 1   
    28     5    26 1   
    29     6    27 1   
    30     6    28 1   
    31     6    29 1   
    32     9    30 1   
    33    10    31 1   
    34    11    32 1   
    35    12    33 1   
    36    16    34 1   
    37    17    35 1   
    38    18    36 1   
    39    19    37 1   
    40    21    38 1   
    41    22    39 1   
    42    23    40 1   
@<TRIPOS>SUBSTRUCTURE
     1 65W         1 TEMP              0 ****  ****    0 ROOT
