@<TRIPOS>MOLECULE
molecule
   47    49     1     0     0
SMALL
bcc


@<TRIPOS>ATOM
      1 C10          0.0000     0.0000     0.0000 ca         1 65Y      -0.087000
      2 C11          1.3770     0.0010    -2.4310 ca         1 65Y      -0.158300
      3 C13          1.4010     0.0000     0.0000 ca         1 65Y      -0.138300
      4 C15          4.1480     0.0010    -0.1380 ca         1 65Y       0.471600
      5 C17          5.6510    -0.0020    -0.2390 c3         1 65Y      -0.127000
      6 C22          6.1050    -1.2230    -1.0350 c3         1 65Y      -0.076100
      7 C23          6.1150     1.2690    -0.9460 c3         1 65Y      -0.076100
      8 C25         -2.0640     1.9390     5.0110 c3         1 65Y      -0.083600
      9 C26          0.0480     2.6560     6.1270 c3         1 65Y      -0.083600
     10 C1           1.3930    -1.2150     3.2860 ca         1 65Y      -0.091000
     11 C2           0.7590    -1.2540     4.5170 ca         1 65Y      -0.135000
     12 C3           0.1370    -0.1200     5.0120 ca         1 65Y      -0.134000
     13 C4           0.1480     1.0530     4.2750 ca         1 65Y      -0.095300
     14 C5           0.7820     1.0920     3.0440 ca         1 65Y      -0.105000
     15 C6           1.4050    -0.0420     2.5500 cp         1 65Y      -0.010000
     16 C7           2.1350     0.0000     1.2120 cp         1 65Y      -0.012000
     17 C8           0.0150    -0.0100    -2.3980 ca         1 65Y      -0.153000
     18 C9          -0.6740    -0.0050    -1.1870 ca         1 65Y       0.024400
     19 C12          2.1050     0.0010    -1.2300 ca         1 65Y       0.408600
     20 C14          3.5360     0.0010     1.1270 ca         1 65Y      -0.181900
     21 N16          3.4440     0.0120    -1.2410 nb         1 65Y      -0.718000
     22 Cl1         -2.4270     0.1210    -1.4950 cl         1 65Y      -0.172400
     23 H1          -0.5410    -0.0390     0.9380 ha         1 65Y       0.147000
     24 H2           1.8950     0.0000    -3.3820 ha         1 65Y       0.139000
     25 H3           6.0800    -0.0130     0.7560 hc         1 65Y       0.119700
     26 H4           5.9180    -1.0570    -2.0890 hc         1 65Y       0.029867
     27 H5           5.5560    -2.0950    -0.7040 hc         1 65Y       0.029867
     28 H6           7.1650    -1.3830    -0.8780 hc         1 65Y       0.029867
     29 H7           5.9300     1.1790    -2.0100 hc         1 65Y       0.029867
     30 H8           5.5700     2.1200    -0.5560 hc         1 65Y       0.029867
     31 H9           7.1760     1.4110    -0.7750 hc         1 65Y       0.029867
     32 H10         -0.5110     3.0590     4.0390 hc         1 65Y       0.056700
     33 H11         -2.1550     1.2690     5.8570 hc         1 65Y       0.032533
     34 H12         -2.5150     1.4830     4.1380 hc         1 65Y       0.032533
     35 H13         -2.5690     2.8720     5.2330 hc         1 65Y       0.032533
     36 H14          1.1230     2.7100     6.0090 hc         1 65Y       0.032533
     37 H15         -0.1980     1.8880     6.8510 hc         1 65Y       0.032533
     38 H16         -0.3270     3.6110     6.4730 hc         1 65Y       0.032533
     39 H17          1.8440    -2.1130     2.8810 ha         1 65Y       0.146000
     40 H18          0.7570    -2.1700     5.0960 ha         1 65Y       0.121000
     41 H19         -0.3490    -0.1480     5.9790 ha         1 65Y       0.116000
     42 H20          0.8220     2.0190     2.4850 ha         1 65Y       0.135000
     43 H21         -0.5490    -0.0140    -3.3230 ha         1 65Y       0.131000
     44 C19          4.6130    -0.0480     2.2090 c          1 65Y       0.902200
     45 O20          5.0840    -1.1550     2.5790 o          1 65Y      -0.814800
     46 O21          5.0320     1.0200     2.7280 o          1 65Y      -0.814800
     47 C24         -0.5920     2.2850     4.7920 c3         1 65Y      -0.025400
@<TRIPOS>BOND
     1    22    18 1   
     2    17    18 ar  
     3    17     2 ar  
     4    18     1 ar  
     5     2    19 ar  
     6     1     3 ar  
     7    19     3 ar  
     8    19    21 ar  
     9     3    16 ar  
    10    21     4 ar  
    11    16    15 1   
    12    16    20 ar  
    13    10    15 ar  
    14    10    11 ar  
    15    15    14 ar  
    16    11    12 ar  
    17     4    20 ar  
    18     4     5 1   
    19    14    13 ar  
    20    12    13 ar  
    21    20    44 1   
    22    13    47 1   
    23     8    47 1   
    24    47     9 1   
    25     7     5 1   
    26     5     6 1   
    27    44    46 1   
    28    44    45 1   
    29     1    23 1   
    30     2    24 1   
    31     5    25 1   
    32     6    26 1   
    33     6    27 1   
    34     6    28 1   
    35     7    29 1   
    36     7    30 1   
    37     7    31 1   
    38    47    32 1   
    39     8    33 1   
    40     8    34 1   
    41     8    35 1   
    42     9    36 1   
    43     9    37 1   
    44     9    38 1   
    45    10    39 1   
    46    11    40 1   
    47    12    41 1   
    48    14    42 1   
    49    17    43 1   
@<TRIPOS>SUBSTRUCTURE
     1 65Y         1 TEMP              0 ****  ****    0 ROOT
