@<TRIPOS>MOLECULE
molecule
   44    47     1     0     0
SMALL
bcc


@<TRIPOS>ATOM
      1 N1           0.0000     0.0000     0.0000 nh         1 65Z      -0.684300
      2 C2           1.4690     0.0000     0.0000 c3         1 65Z       0.173800
      3 C3           1.9810     0.0000     1.4420 c3         1 65Z      -0.079400
      4 C4           1.4520    -1.2420     2.1650 c3         1 65Z      -0.083400
      5 C5          -0.0790    -1.2420     2.1100 c3         1 65Z      -0.079400
      6 C6          -0.5300    -1.2060     0.6480 c3         1 65Z       0.173800
      7 C7          -1.5880    -0.5390    -6.0550 ca         1 65Z       0.012400
      8 C8          -0.7770    -1.6010    -5.6620 ca         1 65Z      -0.137000
      9 C9          -0.3090    -1.6930    -4.3860 ca         1 65Z       0.000100
     10 C10         -1.9360     0.4380    -5.1680 ca         1 65Z      -0.093000
     11 C11         -1.4720     0.3740    -3.8480 ca         1 65Z      -0.131300
     12 C12         -0.6470    -0.7040    -3.4450 ca         1 65Z       0.415600
     13 N13         -0.1970    -0.7790    -2.1850 nb         1 65Z      -0.744000
     14 C14         -0.4950     0.1320    -1.2840 ca         1 65Z       0.645200
     15 C15         -1.3140     1.2410    -1.5990 ca         1 65Z      -0.129900
     16 C16         -1.8150     1.3720    -2.9020 cp         1 65Z      -0.016000
     17 C19         -1.6340     2.2450    -0.5730 c          1 65Z       0.897200
     18 O20         -2.6620     2.0380     0.2730 o          1 65Z      -0.818800
     19 O21         -0.9710     3.2600    -0.4890 o          1 65Z      -0.818800
     20 C22         -2.6740     2.5160    -3.2780 cp         1 65Z      -0.020000
     21 C23         -2.2290     3.4470    -4.2190 ca         1 65Z      -0.091000
     22 C24         -4.2820     4.6580    -3.9810 ca         1 65Z      -0.135000
     23 C25         -4.7300     3.7360    -3.0510 ca         1 65Z      -0.139500
     24 C26         -3.0360     4.5110    -4.5650 ca         1 65Z      -0.139500
     25 C27         -3.9340     2.6670    -2.6960 ca         1 65Z      -0.091000
     26 H1           1.8280     0.8860    -0.5090 h1         1 65Z       0.042950
     27 H2           1.8280    -0.8860    -0.5090 h1         1 65Z       0.042950
     28 H3           1.6290     0.8900     1.9490 hc         1 65Z       0.047700
     29 H4           3.0640    -0.0180     1.4400 hc         1 65Z       0.047700
     30 H5           1.7760    -1.2230     3.1990 hc         1 65Z       0.027700
     31 H6           1.8310    -2.1320     1.6780 hc         1 65Z       0.027700
     32 H7          -0.4580    -0.3690     2.6260 hc         1 65Z       0.047700
     33 H8          -0.4560    -2.1410     2.5820 hc         1 65Z       0.047700
     34 H9          -1.6120    -1.1900     0.6070 h1         1 65Z       0.042950
     35 H10         -0.1570    -2.0840     0.1350 h1         1 65Z       0.042950
     36 H11         -0.5130    -2.3650    -6.3830 ha         1 65Z       0.141000
     37 H12         -2.5680     1.2600    -5.4830 ha         1 65Z       0.155000
     38 H14         -1.2540     3.3330    -4.6770 ha         1 65Z       0.146000
     39 H15         -4.9110     5.4960    -4.2560 ha         1 65Z       0.111000
     40 H16         -5.7080     3.8560    -2.5990 ha         1 65Z       0.118000
     41 H17         -2.6920     5.2350    -5.2940 ha         1 65Z       0.118000
     42 H18         -4.2860     1.9460    -1.9680 ha         1 65Z       0.146000
     43 Cl1          0.7010    -3.0260    -3.9230 cl         1 65Z      -0.104400
     44 Cl2         -2.1580    -0.4540    -7.6920 cl         1 65Z      -0.135400
@<TRIPOS>BOND
     1    44     7 1
     2     8     7 ar
     3     8     9 ar
     4     7    10 ar
     5    43     9 1
     6     9    12 ar
     7    10    11 ar
     8    12    11 ar
     9    12    13 ar
    10    11    16 ar
    11    13    14 ar
    12    21    24 ar
    13    21    20 ar
    14    16    20 1
    15    16    15 ar
    16    24    22 ar
    17    20    25 ar
    18    22    23 ar
    19    25    23 ar
    20    14    15 ar
    21    14     1 1
    22    15    17 1
    23     2     1 1
    24     2     3 1
    25     1     6 1
    26    17    19 1
    27    17    18 1
    28     6     5 1
    29     3     4 1
    30     4     5 1
    31     2    26 1
    32     2    27 1
    33     3    28 1
    34     3    29 1
    35     4    30 1
    36     4    31 1
    37     5    32 1
    38     5    33 1
    39     6    34 1
    40     6    35 1
    41     8    36 1
    42    10    37 1
    43    21    38 1
    44    22    39 1
    45    23    40 1
    46    24    41 1
    47    25    42 1
@<TRIPOS>SUBSTRUCTURE
     1 65Z         1 TEMP              0 ****  ****    0 ROOT
