@<TRIPOS>MOLECULE
65Z
   44    47     1     0     0
SMALL
bcc


@<TRIPOS>ATOM
      1 N1           0.0000     0.0000     0.0000 nh         1 65Z      -0.474300
      2 C2           1.4690     0.0000     0.0000 c3         1 65Z       0.150800
      3 C3           1.9810     0.0000     1.4420 c3         1 65Z      -0.026900
      4 C4           1.4520    -1.2420     2.1650 c3         1 65Z      -0.028400
      5 C5          -0.0790    -1.2420     2.1100 c3         1 65Z      -0.026900
      6 C6          -0.5300    -1.2060     0.6480 c3         1 65Z       0.150800
      7 C7          -1.5880    -0.5390    -6.0550 ca         1 65Z      -0.038600
      8 C8          -0.7770    -1.6010    -5.6620 ca         1 65Z      -0.126000
      9 C9          -0.3090    -1.6930    -4.3860 ca         1 65Z      -0.061900
     10 C10         -1.9360     0.4380    -5.1680 ca         1 65Z      -0.079000
     11 C11         -1.4720     0.3740    -3.8480 ca         1 65Z      -0.121300
     12 C12         -0.6470    -0.7040    -3.4450 ca         1 65Z       0.369600
     13 N13         -0.1970    -0.7790    -2.1850 nb         1 65Z      -0.636000
     14 C14         -0.4950     0.1320    -1.2840 ca         1 65Z       0.529200
     15 C15         -1.3140     1.2410    -1.5990 ca         1 65Z      -0.123900
     16 C16         -1.8150     1.3720    -2.9020 cp         1 65Z      -0.010000
     17 C19         -1.6340     2.2450    -0.5730 c          1 65Z       0.984200
     18 O20         -2.6620     2.0380     0.2730 o          1 65Z      -0.870300
     19 O21         -0.9710     3.2600    -0.4890 o          1 65Z      -0.870300
     20 C22         -2.6740     2.5160    -3.2780 cp         1 65Z      -0.012000
     21 C23         -2.2290     3.4470    -4.2190 ca         1 65Z      -0.068500
     22 C24         -4.2820     4.6580    -3.9810 ca         1 65Z      -0.114000
     23 C25         -4.7300     3.7360    -3.0510 ca         1 65Z      -0.114000
     24 C26         -3.0360     4.5110    -4.5650 ca         1 65Z      -0.114000
     25 C27         -3.9340     2.6670    -2.6960 ca         1 65Z      -0.068500
     26 H1           1.8280     0.8860    -0.5090 h1         1 65Z       0.015450
     27 H2           1.8280    -0.8860    -0.5090 h1         1 65Z       0.015450
     28 H3           1.6290     0.8900     1.9490 hc         1 65Z       0.018450
     29 H4           3.0640    -0.0180     1.4400 hc         1 65Z       0.018450
     30 H5           1.7760    -1.2230     3.1990 hc         1 65Z       0.001200
     31 H6           1.8310    -2.1320     1.6780 hc         1 65Z       0.001200
     32 H7          -0.4580    -0.3690     2.6260 hc         1 65Z       0.018450
     33 H8          -0.4560    -2.1410     2.5820 hc         1 65Z       0.018450
     34 H9          -1.6120    -1.1900     0.6070 h1         1 65Z       0.015450
     35 H10         -0.1570    -2.0840     0.1350 h1         1 65Z       0.015450
     36 H11         -0.5130    -2.3650    -6.3830 ha         1 65Z       0.114000
     37 H12         -2.5680     1.2600    -5.4830 ha         1 65Z       0.130000
     38 H14         -1.2540     3.3330    -4.6770 ha         1 65Z       0.119000
     39 H15         -4.9110     5.4960    -4.2560 ha         1 65Z       0.087000
     40 H16         -5.7080     3.8560    -2.5990 ha         1 65Z       0.092000
     41 H17         -2.6920     5.2350    -5.2940 ha         1 65Z       0.092000
     42 H18         -4.2860     1.9460    -1.9680 ha         1 65Z       0.119000
     43 Cl1          0.7010    -3.0260    -3.9230 cl         1 65Z      -0.027400
     44 Cl2         -2.1580    -0.4540    -7.6920 cl         1 65Z      -0.063400
@<TRIPOS>BOND
     1     1     2 1   
     2     1     6 1   
     3     1    14 1   
     4     2     3 1   
     5     2    26 1   
     6     2    27 1   
     7     3     4 1   
     8     3    28 1   
     9     3    29 1   
    10     4     5 1   
    11     4    30 1   
    12     4    31 1   
    13     5     6 1   
    14     5    32 1   
    15     5    33 1   
    16     6    34 1   
    17     6    35 1   
    18     7     8 ar  
    19     7    10 ar  
    20     7    44 1   
    21     8     9 ar  
    22     8    36 1   
    23     9    12 ar  
    24     9    43 1   
    25    10    11 ar  
    26    10    37 1   
    27    11    12 ar  
    28    11    16 ar  
    29    12    13 ar  
    30    13    14 ar  
    31    14    15 ar  
    32    15    16 ar  
    33    15    17 1   
    34    16    20 1   
    35    17    18 1   
    36    17    19 1   
    37    20    21 ar  
    38    20    25 ar  
    39    21    24 ar  
    40    21    38 1   
    41    22    23 ar  
    42    22    24 ar  
    43    22    39 1   
    44    23    25 ar  
    45    23    40 1   
    46    24    41 1   
    47    25    42 1   
@<TRIPOS>SUBSTRUCTURE
     1 65Z         1 TEMP              0 ****  ****    0 ROOT
