@<TRIPOS>MOLECULE
molecule
   72    76     1     0     0
SMALL
bcc


@<TRIPOS>ATOM
      1 N1           0.0000     0.0000     0.0000 na         1 662      -0.255000
      2 C2          -0.8670    -0.0010    -1.1810 c3         1 662       0.257800
      3 C3          -1.0750    -1.4450    -1.6780 c3         1 662       0.103100
      4 C4           1.3720     0.0000     0.0000 ca         1 662       0.474800
      5 C5           1.7600     0.0000     1.3500 ca         1 662      -0.211200
      6 N6           0.6260     0.0010     2.0910 nc         1 662      -0.591100
      7 C7          -6.9690     0.3530     4.2770 ca         1 662      -0.150600
      8 C8          -2.6090    -1.6470    -1.6240 c3         1 662      -0.124700
      9 C9          -0.4080     0.0060     1.3000 cd         1 662       0.424700
     10 O10         -2.1610     0.5230    -0.8370 os         1 662      -0.420600
     11 O11         -0.5980    -1.5870    -3.0170 oh         1 662      -0.589800
     12 C12         -8.0080     0.1500     6.4500 ca         1 662       0.057100
     13 C13         -8.1160     0.3790     5.0800 ca         1 662       0.158100
     14 C14         -3.0220    -2.3610    -0.3360 c3         1 662      -0.082100
     15 C15         -3.1300    -0.1870    -1.6380 c3         1 662       0.177300
     16 C16         -5.7240     0.0980     4.8530 ca         1 662      -0.097000
     17 C17         -7.0780     0.5900     2.8240 c          1 662       0.671700
     18 C18          3.1340     0.0000     1.6450 ca         1 662       0.787200
     19 N19          2.3100    -0.0010    -0.9420 nb         1 662      -0.796000
     20 O20         -9.1210     0.1740     7.2320 oh         1 662      -0.502100
     21 C21         -5.6280    -0.1300     6.2200 cp         1 662      -0.038000
     22 N22          3.9990     0.0010     0.6370 nb         1 662      -0.833000
     23 C23         -6.7730    -0.1040     7.0170 ca         1 662      -0.127000
     24 C24          3.5860     0.0000    -0.6180 ca         1 662       0.741900
     25 C25         -4.3040    -0.4020     6.8340 cp         1 662      -0.053000
     26 C26         -4.4980    -0.1050    -1.0110 c2         1 662      -0.162200
     27 O27         -8.1650     0.8080     2.3240 o          1 662      -0.579100
     28 N28         -5.9740     0.5650     2.0530 ns         1 662      -0.585900
     29 C29         -4.7150     0.7180    -0.0160 c2         1 662      -0.183200
     30 C30         -4.2040    -0.6300     8.2050 ca         1 662      -0.095000
     31 C31         -3.1590    -0.4350     6.0400 ca         1 662      -0.095000
     32 N32          3.5760     0.0010     2.9570 nu         1 662      -0.891900
     33 O33         -9.3290     0.6280     4.5270 oh         1 662      -0.470100
     34 C34         -1.8350    -0.9100     7.9800 ca         1 662       0.136900
     35 C35         -1.9310    -0.6890     6.6150 ca         1 662      -0.162000
     36 C36         -2.9710    -0.8830     8.7710 ca         1 662      -0.162000
     37 F37         -0.6300    -1.1590     8.5390 f          1 662      -0.138900
     38 C38         -6.0820     0.7990     0.6110 c3         1 662       0.147200
     39 C39          5.0120     0.0020     3.2460 c3         1 662       0.235800
     40 C40          5.2280     0.0030     4.7610 c3         1 662      -0.105400
     41 C41          6.7280     0.0040     5.0620 c3         1 662      -0.088100
     42 H2          -0.4260     0.5980    -1.9690 h2         1 662       0.110700
     43 H3          -0.5800    -2.1450    -1.0160 h1         1 662       0.064700
     44 H8          -2.9540    -2.1850    -2.4990 hc         1 662       0.081700
     45 H9          -1.4400     0.0150     1.6280 h5         1 662       0.080800
     46 HO11        -0.1840    -2.4290    -3.1160 ho         1 662       0.416000
     47 H14         -2.8900    -1.6930     0.5060 hc         1 662       0.042367
     48 H14A        -2.4060    -3.2420    -0.1980 hc         1 662       0.042367
     49 H14B        -4.0620    -2.6560    -0.4040 hc         1 662       0.042367
     50 H15         -3.1430     0.2010    -2.6500 h1         1 662       0.075700
     51 H16         -4.8340     0.0770     4.2360 ha         1 662       0.134000
     52 HO20        -9.0830     0.9170     7.8100 ho         1 662       0.416000
     53 H23         -6.6940    -0.2820     8.0820 ha         1 662       0.146000
     54 H24          4.3250     0.0010    -1.4100 h5         1 662       0.061100
     55 H26         -5.3020    -0.7280    -1.3840 ha         1 662       0.143000
     56 HN28        -5.0740     0.4350     2.4720 hn         1 662       0.312500
     57 H29         -3.9100     1.3410     0.3570 ha         1 662       0.146000
     58 H30         -5.0920    -0.6100     8.8250 ha         1 662       0.137500
     59 H31         -3.2330    -0.2620     4.9730 ha         1 662       0.137500
     60 HN32         2.9140     0.0050     3.7080 hn         1 662       0.462800
     61 HO33        -9.6570     1.4530     4.8440 ho         1 662       0.424000
     62 H35         -1.0400    -0.7130     6.0000 ha         1 662       0.150500
     63 H36         -2.8920    -1.0590     9.8370 ha         1 662       0.150500
     64 H38         -6.5020     1.7820     0.4360 h1         1 662       0.061200
     65 H38A        -6.7270     0.0480     0.1710 h1         1 662       0.061200
     66 H39          5.4670    -0.8820     2.8160 h1         1 662       0.053700
     67 H39A         5.4660     0.8870     2.8160 h1         1 662       0.053700
     68 H40          4.7730     0.8870     5.1910 hc         1 662       0.046700
     69 H40A         4.7730    -0.8820     5.1910 hc         1 662       0.046700
     70 H41          6.8810     0.0250     6.1340 hc         1 662       0.038033
     71 H41A         7.1860     0.8770     4.6140 hc         1 662       0.038033
     72 H41B         7.1790    -0.8920     4.6510 hc         1 662       0.038033
@<TRIPOS>BOND
     1     1     2 1
     2     1     4 1
     3     1     9 1
     4     2     3 1
     5     2    10 1
     6     3     8 1
     7     3    11 1
     8     4     5 ar
     9     4    19 ar
    10     5     6 1
    11     5    18 ar
    12     6     9 2
    13     7    13 ar
    14     7    16 ar
    15     7    17 1
    16     8    14 1
    17     8    15 1
    18    10    15 1
    19    12    13 ar
    20    12    20 1
    21    12    23 ar
    22    13    33 1
    23    15    26 1
    24    16    21 ar
    25    17    27 2
    26    17    28 1
    27    18    22 ar
    28    18    32 1
    29    19    24 ar
    30    21    23 ar
    31    21    25 1
    32    22    24 ar
    33    25    30 ar
    34    25    31 ar
    35    26    29 2
    36    28    38 1
    37    29    38 1
    38    30    36 ar
    39    31    35 ar
    40    32    39 1
    41    34    35 ar
    42    34    36 ar
    43    34    37 1
    44    39    40 1
    45    40    41 1
    46     2    42 1
    47     3    43 1
    48     8    44 1
    49     9    45 1
    50    11    46 1
    51    14    47 1
    52    14    48 1
    53    14    49 1
    54    15    50 1
    55    16    51 1
    56    20    52 1
    57    23    53 1
    58    24    54 1
    59    26    55 1
    60    28    56 1
    61    29    57 1
    62    30    58 1
    63    31    59 1
    64    32    60 1
    65    33    61 1
    66    35    62 1
    67    36    63 1
    68    38    64 1
    69    38    65 1
    70    39    66 1
    71    39    67 1
    72    40    68 1
    73    40    69 1
    74    41    70 1
    75    41    71 1
    76    41    72 1
@<TRIPOS>SUBSTRUCTURE
     1 662         1 TEMP              0 ****  ****    0 ROOT
