@<TRIPOS>MOLECULE
662
   72    78     1     0     0
SMALL
bcc


@<TRIPOS>ATOM
      1 N1           0.0000     0.0000     0.0000 na         1 662       0.285000
      2 C2          -0.8670    -0.0010    -1.1810 c3         1 662       0.058000
      3 C3          -1.0750    -1.4450    -1.6780 c3         1 662       0.031000
      4 C4           1.3720     0.0000     0.0000 c2         1 662      -0.122000
      5 C5           1.7600     0.0000     1.3500 c2         1 662      -0.250000
      6 N6           0.6260     0.0010     2.0910 n2         1 662      -0.074000
      7 C7          -6.9690     0.3530     4.2770 ca         1 662      -0.151000
      8 C8          -2.6090    -1.6470    -1.6240 c3         1 662      -0.166000
      9 C9          -0.4080     0.0060     1.3000 c2         1 662      -0.207000
     10 O10         -2.1610     0.5230    -0.8370 os         1 662      -0.252000
     11 O11         -0.5980    -1.5870    -3.0170 oh         1 662      -0.297000
     12 C12         -8.0080     0.1500     6.4500 ca         1 662       0.020000
     13 C13         -8.1160     0.3790     5.0800 ca         1 662       0.130000
     14 C14         -3.0220    -2.3610    -0.3360 c3         1 662      -0.100000
     15 C15         -3.1300    -0.1870    -1.6380 DU         1 662       0.140000
     16 C16         -5.7240     0.0980     4.8530 ca         1 662      -0.081000
     17 C17         -7.0780     0.5900     2.8240 c2         1 662       0.274000
     18 C18          3.1340     0.0000     1.6450 c2         1 662       0.084000
     19 N19          2.3100    -0.0010    -0.9420 n2         1 662      -0.160000
     20 O20         -9.1210     0.1740     7.2320 oh         1 662      -0.247000
     21 C21         -5.6280    -0.1300     6.2200 cp         1 662      -0.037000
     22 N22          3.9990     0.0010     0.6370 n2         1 662      -0.218000
     23 C23         -6.7730    -0.1040     7.0170 ca         1 662      -0.108000
     24 C24          3.5860     0.0000    -0.6180 c2         1 662       0.030000
     25 C25         -4.3040    -0.4020     6.8340 cq         1 662      -0.044000
     26 C26         -4.4980    -0.1050    -1.0110 c2         1 662      -0.125000
     27 O27         -8.1650     0.8080     2.3240 o          1 662      -0.395000
     28 N28         -5.9740     0.5650     2.0530 ns         1 662      -0.066000
     29 C29         -4.7150     0.7180    -0.0160 c2         1 662      -0.122000
     30 C30         -4.2040    -0.6300     8.2050 ca         1 662      -0.075000
     31 C31         -3.1590    -0.4350     6.0400 ca         1 662      -0.075000
     32 N32          3.5760     0.0010     2.9570 nu         1 662       0.086000
     33 O33         -9.3290     0.6280     4.5270 oh         1 662      -0.216000
     34 C34         -1.8350    -0.9100     7.9800 ca         1 662       0.070000
     35 C35         -1.9310    -0.6890     6.6150 ca         1 662      -0.126000
     36 C36         -2.9710    -0.8830     8.7710 ca         1 662      -0.126000
     37 F37         -0.6300    -1.1590     8.5390 f          1 662      -0.094000
     38 C38         -6.0820     0.7990     0.6110 DU         1 662       0.105000
     39 C39          5.0120     0.0020     3.2460 c3         1 662      -0.082000
     40 C40          5.2280     0.0030     4.7610 c3         1 662      -0.120000
     41 C41          6.7280     0.0040     5.0620 c3         1 662      -0.105000
     42 H2          -0.4260     0.5980    -1.9690 h2         1 662       0.108000
     43 H3          -0.5800    -2.1450    -1.0160 h1         1 662       0.068000
     44 H8          -2.9540    -2.1850    -2.4990 hc         1 662       0.095000
     45 H9          -1.4400     0.0140     1.6280 h5         1 662       0.170000
     46 HO11        -0.1280    -2.4010    -3.0990 ho         1 662       0.201000
     47 H14         -2.4190    -3.2520    -0.2080 hc         1 662       0.051000
     48 H14A        -2.8730    -1.6990     0.5080 hc         1 662       0.051000
     49 H14B        -4.0670    -2.6390    -0.3970 hc         1 662       0.051000
     50 H15         -3.1430     0.2010    -2.6500 ha         1 662       0.069000
     51 H16         -4.8340     0.0770     4.2360 ha         1 662       0.116000
     52 HO20        -9.3630    -0.7080     7.4620 ho         1 662       0.208000
     53 H23         -6.6940    -0.2820     8.0820 ha         1 662       0.122000
     54 H24          4.3250     0.0010    -1.4100 h5         1 662       0.132000
     55 H26         -4.1040     0.6180    -1.7150 DU         1 662       0.057000
     56 HN28        -5.0760     0.4160     2.4690 hn         1 662       0.108000
     57 H29         -5.5550     1.2490    -0.4470 DU         1 662       0.019000
     58 H30         -5.0920    -0.6100     8.8250 ha         1 662       0.113500
     59 H31         -3.2330    -0.2620     4.9730 ha         1 662       0.113500
     60 HN32         2.9140     0.0090     3.7080 hn         1 662       0.104000
     61 HO33        -9.6240     1.4850     4.7860 ho         1 662       0.211000
     62 H35         -1.0400    -0.7130     6.0000 ha         1 662       0.121500
     63 H36         -2.8920    -1.0590     9.8370 ha         1 662       0.121500
     64 H38         -6.5020     1.7820     0.4360 ha         1 662       0.069000
     65 H38A        -6.7270     0.0480     0.1710 ha         1 662       0.069000
     66 H39          5.4660     0.8870     2.8160 h1         1 662       0.067000
     67 H39A         5.4670    -0.8820     2.8160 h1         1 662       0.067000
     68 H40          4.7730    -0.8820     5.1910 hc         1 662       0.056000
     69 H40A         4.7730     0.8870     5.1910 hc         1 662       0.056000
     70 H41          7.2010    -0.8190     4.5400 hc         1 662       0.043000
     71 H41A         6.8820    -0.1090     6.1290 hc         1 662       0.043000
     72 H41B         7.1620     0.9390     4.7310 hc         1 662       0.043000
@<TRIPOS>BOND
     1     1     2 1   
     2     1     4 1   
     3     1     9 1   
     4     2     3 1   
     5     2    10 1   
     6     2    42 1   
     7     3     8 1   
     8     3    11 1   
     9     3    43 1   
    10     4     5 1   
    11     4    19 1   
    12     5     6 1   
    13     5    18 1   
    14     6     9 1   
    15     7    13 1   
    16     7    16 1   
    17     7    17 1   
    18     8    14 1   
    19     8    15 1   
    20     8    44 1   
    21     9    45 1   
    22    10    15 1   
    23    11    46 1   
    24    12    13 1   
    25    12    20 1   
    26    12    23 1   
    27    13    33 1   
    28    14    47 1   
    29    14    48 1   
    30    14    49 1   
    31    15    26 1   
    32    15    50 1   
    33    15    55 1   
    34    16    21 1   
    35    16    51 1   
    36    17    27 1   
    37    17    28 1   
    38    18    22 1   
    39    18    32 1   
    40    19    24 1   
    41    20    52 1   
    42    21    23 1   
    43    21    25 1   
    44    22    24 1   
    45    23    53 1   
    46    24    54 1   
    47    25    30 1   
    48    25    31 1   
    49    26    29 1   
    50    26    55 1   
    51    28    38 1   
    52    28    56 1   
    53    29    38 1   
    54    29    57 1   
    55    30    36 1   
    56    30    58 1   
    57    31    35 1   
    58    31    59 1   
    59    32    39 1   
    60    32    60 1   
    61    33    61 1   
    62    34    35 1   
    63    34    36 1   
    64    34    37 1   
    65    35    62 1   
    66    36    63 1   
    67    38    57 1   
    68    38    64 1   
    69    38    65 1   
    70    39    40 1   
    71    39    66 1   
    72    39    67 1   
    73    40    41 1   
    74    40    68 1   
    75    40    69 1   
    76    41    70 1   
    77    41    71 1   
    78    41    72 1   
@<TRIPOS>SUBSTRUCTURE
     1 662         1 TEMP              0 ****  ****    0 ROOT
