@<TRIPOS>MOLECULE
molecule
   53    56     1     0     0
SMALL
bcc


@<TRIPOS>ATOM
      1 C34          0.0000     0.0000     0.0000 c3         1 663       0.034600
      2 N33          1.4430     0.0000     0.0000 na         1 663      -0.193900
      3 C32          2.2390     0.0000     1.1110 cc         1 663      -0.267600
      4 C31          3.5250     0.0000     0.6220 cd         1 663       0.289200
      5 N30          3.5330    -0.0010    -0.7500 nd         1 663      -0.655000
      6 C29          2.2800    -0.0010    -1.0540 cc         1 663       0.406800
      7 C28          1.7380    -0.0020    -2.4730 c3         1 663      -0.038400
      8 C25          2.7850    -0.0020    -3.5240 cc         1 663      -0.086300
      9 C26          3.3620    -1.1700    -4.1010 cc         1 663       0.052400
     10 Cl3          2.9100    -2.7600    -3.6460 cl         1 663      -0.052400
     11 C24          3.3150     1.1530    -4.0560 cd         1 663      -0.100100
     12 S23          4.5030     0.8270    -5.2460 ss         1 663       0.050200
     13 C22          4.2860    -0.8370    -5.0270 cd         1 663      -0.169700
     14 C20          5.1100    -1.7360    -5.8530 c          1 663       0.704700
     15 O21          5.0450    -1.7050    -7.0800 o          1 663      -0.513100
     16 N19          5.9790    -2.5750    -5.1310 ns         1 663      -0.488100
     17 C12          6.9020    -3.5020    -5.6280 ca         1 663       0.103600
     18 C13          7.5030    -3.2820    -6.8680 ca         1 663       0.090100
     19 O17          7.2070    -2.1740    -7.6040 os         1 663      -0.315900
     20 C18          8.0110    -1.0160    -7.3840 c3         1 663       0.130700
     21 C14          8.4220    -4.2030    -7.3700 ca         1 663      -0.098000
     22 C15          8.7410    -5.3440    -6.6330 ca         1 663      -0.000600
     23 Cl2          9.8750    -6.4800    -7.2530 cl         1 663      -0.086400
     24 C16          8.1390    -5.5640    -5.3940 ca         1 663      -0.071000
     25 C11          7.2200    -4.6420    -4.8920 ca         1 663      -0.181600
     26 C9           6.6080    -4.9040    -3.5940 c          1 663       0.696700
     27 O10          7.1020    -4.4680    -2.5460 o          1 663      -0.570100
     28 N7           5.4160    -5.6400    -3.6390 ns         1 663      -0.562400
     29 C1           4.5760    -6.0180    -2.5620 ca         1 663       0.535200
     30 C6           4.9650    -5.6220    -1.3010 ca         1 663      -0.263300
     31 C5           4.1490    -5.9900    -0.2380 ca         1 663      -0.063000
     32 C4           2.9950    -6.7270    -0.4770 ca         1 663      -0.130900
     33 Cl1          1.9630    -7.1970     0.8100 cl         1 663      -0.084400
     34 C3           2.7050    -7.0700    -1.7880 ca         1 663       0.432200
     35 N2           3.4730    -6.7310    -2.8470 nb         1 663      -0.690000
     36 H341        -0.3610    -0.8500    -0.5660 h1         1 663       0.053367
     37 H342        -0.3610    -0.0650     1.0190 h1         1 663       0.053367
     38 H343        -0.3610     0.9150    -0.4530 h1         1 663       0.053367
     39 H32          1.9830     0.6210     1.9610 h4         1 663       0.177000
     40 H31          4.3120    -0.5040     1.1690 h4         1 663       0.038100
     41 H281         1.1180     0.8770    -2.6040 hc         1 663       0.061200
     42 H282         1.1200    -0.8820    -2.6040 hc         1 663       0.061200
     43 H24          2.7050     2.0450    -4.1300 h4         1 663       0.175000
     44 HN19         5.9310    -2.4990    -4.1340 hn         1 663       0.334500
     45 H181         7.4340    -0.1280    -7.6100 h1         1 663       0.037367
     46 H182         8.8820    -1.0540    -8.0270 h1         1 663       0.037367
     47 H183         8.3270    -0.9880    -6.3480 h1         1 663       0.037367
     48 H14          8.8890    -4.0320    -8.3320 ha         1 663       0.162000
     49 H16          8.3850    -6.4500    -4.8210 ha         1 663       0.157000
     50 HN7          5.1200    -5.9380    -4.5480 hn         1 663       0.334500
     51 H6           5.8710    -5.0480    -1.1450 ha         1 663       0.198000
     52 H5           4.4110    -5.7030     0.7730 ha         1 663       0.152000
     53 H3           1.8060    -7.6450    -1.9750 h4         1 663       0.032100
@<TRIPOS>BOND
     1     1     2 1   
     2     1    36 1   
     3     1    37 1   
     4     1    38 1   
     5     2     3 1   
     6     2     6 1   
     7     3     4 2   
     8     3    39 1   
     9     4     5 1   
    10     4    40 1   
    11     5     6 2   
    12     6     7 1   
    13     7     8 1   
    14     7    41 1   
    15     7    42 1   
    16     8    11 2   
    17     8     9 1   
    18     9    10 1   
    19     9    13 2   
    20    11    12 1   
    21    11    43 1   
    22    12    13 1   
    23    13    14 1   
    24    14    16 1   
    25    14    15 2   
    26    16    17 1   
    27    16    44 1   
    28    17    18 ar  
    29    17    25 ar  
    30    18    19 1   
    31    18    21 ar  
    32    19    20 1   
    33    20    45 1   
    34    20    46 1   
    35    20    47 1   
    36    21    22 ar  
    37    21    48 1   
    38    22    24 ar  
    39    22    23 1   
    40    24    25 ar  
    41    24    49 1   
    42    25    26 1   
    43    26    27 2   
    44    26    28 1   
    45    28    29 1   
    46    28    50 1   
    47    29    35 ar  
    48    29    30 ar  
    49    30    31 ar  
    50    30    51 1   
    51    31    32 ar  
    52    31    52 1   
    53    32    34 ar  
    54    32    33 1   
    55    34    35 ar  
    56    34    53 1   
@<TRIPOS>SUBSTRUCTURE
     1 663         1 TEMP              0 ****  ****    0 ROOT
