@<TRIPOS>MOLECULE
664
   62    66     1     0     0
SMALL
bcc


@<TRIPOS>ATOM
      1 N1           0.0000     0.0000     0.0000 nb         1 664      -0.697000
      2 C2           1.3250     0.0000     0.0000 ca         1 664       0.713900
      3 C6          -0.6830     0.0020     1.1350 ca         1 664       0.496200
      4 N3           2.0210     0.0000     1.1260 nb         1 664      -0.729000
      5 N7           2.0000    -0.0020    -1.2090 nu         1 664      -0.282300
      6 C4           1.4010     0.0010     2.3070 ca         1 664       0.580800
      7 C5           0.0010     0.0020     2.3360 ca         1 664      -0.401600
      8 C26          2.1780     0.0010     3.5620 cc         1 664      -0.433800
      9 C8           1.2870     0.1160    -2.4090 ca         1 664       0.020600
     10 C10          1.0420    -0.4010    -4.7450 ca         1 664      -0.147000
     11 C9           1.7480    -0.5190    -3.5600 ca         1 664       0.071100
     12 C11         -0.1200     0.3480    -4.7890 ca         1 664      -0.141000
     13 C13          0.1190     0.8620    -2.4520 ca         1 664      -0.113000
     14 C12         -0.5860     0.9780    -3.6420 ca         1 664       0.027600
     15 O14          2.8910    -1.2560    -3.5200 os         1 664      -0.321900
     16 N15         -1.7610     1.7350    -3.6890 nh         1 664      -0.357000
     17 C16         -2.3380     1.7300    -5.0400 c3         1 664       0.134800
     18 C17         -3.6600     2.5010    -5.0300 c3         1 664       0.152800
     19 N18         -3.4200     3.8750    -4.5700 n3         1 664      -0.549600
     20 C19         -2.8430     3.8800    -3.2180 c3         1 664       0.152800
     21 C20         -1.5210     3.1090    -3.2280 c3         1 664       0.134800
     22 C21         -4.6540     4.6700    -4.6190 c3         1 664       0.189100
     23 C22          3.3050    -1.8810    -4.7370 c3         1 664       0.759700
     24 F23          3.5220    -0.9010    -5.7120 f          1 664      -0.197633
     25 F24          4.4880    -2.5920    -4.5170 f          1 664      -0.197633
     26 F25          2.3060    -2.7590    -5.1730 f          1 664      -0.197633
     27 N27          3.5510     0.1020     3.6610 na         1 664       0.556900
     28 C28          1.6580    -0.0930     4.8210 cd         1 664      -0.039000
     29 C29          2.7410    -0.0530     5.7070 cd         1 664      -0.247600
     30 C30          3.9000     0.0700     4.9460 cc         1 664      -0.308600
     31 C31          5.2550     0.1500     5.6020 c3         1 664       0.070900
     32 C32          5.0960     0.7790     6.9860 c3         1 664       0.061000
     33 N33          3.9920     0.2100     7.7460 ns         1 664      -0.206900
     34 C34          2.8090    -0.1170     7.1780 c          1 664       0.687100
     35 O35          1.8500    -0.4500     7.8480 o          1 664      -0.681500
     36 C36          4.4760     0.2240     2.5310 c3         1 664      -0.049400
     37 H6          -1.7660     0.0020     1.1220 h4         1 664      -0.014900
     38 H7           2.9990    -0.0520    -1.2240 hn         1 664       0.296800
     39 H5          -0.5340     0.0030     3.2780 ha         1 664       0.137000
     40 H13         -0.2440     1.3530    -1.5570 ha         1 664       0.153000
     41 H10          1.4020    -0.8930    -5.6410 ha         1 664       0.128000
     42 HA          -0.6700     0.4390    -5.7170 ha         1 664       0.128000
     43 H161        -1.6490     2.2050    -5.7280 h1         1 664       0.024200
     44 H162        -2.5190     0.7080    -5.3510 h1         1 664       0.024200
     45 H201        -1.1100     3.0860    -2.2260 h1         1 664       0.024200
     46 H202        -0.8240     3.5980    -3.8990 h1         1 664       0.024200
     47 H171        -4.0710     2.5230    -6.0320 h1         1 664       0.015700
     48 H172        -4.3560     2.0130    -4.3590 h1         1 664       0.015700
     49 H191        -2.6620     4.9020    -2.9080 h1         1 664       0.015700
     50 H192        -3.5320     3.4050    -2.5310 h1         1 664       0.015700
     51 H211        -5.3910     4.2330    -3.9570 h1         1 664       0.000700
     52 H212        -4.4420     5.6850    -4.3050 h1         1 664       0.000700
     53 H213        -5.0380     4.6780    -5.6320 h1         1 664       0.000700
     54 H28          0.6410    -0.3680     5.0710 ha         1 664       0.140000
     55 H361         5.4940     0.2410     2.8990 h1         1 664       0.034700
     56 H362         4.2700     1.1410     1.9930 h1         1 664       0.034700
     57 H363         4.3470    -0.6220     1.8660 h1         1 664       0.034700
     58 H311         5.9140     0.7620     4.9980 hc         1 664       0.022700
     59 H312         5.6670    -0.8470     5.7020 hc         1 664       0.022700
     60 H321         6.0140     0.6300     7.5420 h1         1 664       0.012700
     61 H322         4.9240     1.8420     6.8660 h1         1 664       0.012700
     62 H33          4.1130     0.0560     8.7270 hn         1 664       0.179500
@<TRIPOS>BOND
     1     1     2 ar  
     2     1     3 ar  
     3     2     4 ar  
     4     2     5 1   
     5     3     7 ar  
     6     3    37 1   
     7     4     6 ar  
     8     5     9 1   
     9     5    38 1   
    10     6     7 ar  
    11     6     8 1   
    12     7    39 1   
    13     8    27 1   
    14     8    28 2   
    15     9    11 ar  
    16     9    13 ar  
    17    10    11 ar  
    18    10    12 ar  
    19    10    41 1   
    20    11    15 1   
    21    12    14 ar  
    22    12    42 1   
    23    13    14 ar  
    24    13    40 1   
    25    14    16 1   
    26    15    23 1   
    27    16    17 1   
    28    16    21 1   
    29    17    18 1   
    30    17    43 1   
    31    17    44 1   
    32    18    19 1   
    33    18    47 1   
    34    18    48 1   
    35    19    20 1   
    36    19    22 1   
    37    20    21 1   
    38    20    49 1   
    39    20    50 1   
    40    21    45 1   
    41    21    46 1   
    42    22    51 1   
    43    22    52 1   
    44    22    53 1   
    45    23    24 1   
    46    23    25 1   
    47    23    26 1   
    48    27    30 1   
    49    27    36 1   
    50    28    29 1   
    51    28    54 1   
    52    29    30 2   
    53    29    34 1   
    54    30    31 1   
    55    31    32 1   
    56    31    58 1   
    57    31    59 1   
    58    32    33 1   
    59    32    60 1   
    60    32    61 1   
    61    33    34 1   
    62    33    62 1   
    63    34    35 2   
    64    36    55 1   
    65    36    56 1   
    66    36    57 1   
@<TRIPOS>SUBSTRUCTURE
     1 664         1 TEMP              0 ****  ****    0 ROOT
