@<TRIPOS>MOLECULE
molecule
   43    45     1     0     0
SMALL
bcc


@<TRIPOS>ATOM
      1 C1           0.0000     0.0000     0.0000 c3         1 665      -0.076900
      2 C2           1.5300     0.0000     0.0000 c3         1 665      -0.099900
      3 C3           2.0410     0.0000     1.4420 c3         1 665       0.141700
      4 C4           1.5320    -1.2500     2.1630 c3         1 665      -0.099900
      5 C5           0.0010    -1.2490     2.1640 c3         1 665      -0.076900
      6 C6          -0.5090    -1.2500     0.7230 c3         1 665      -0.082400
      7 C7           4.2650    -0.9610     0.8850 c          1 665       0.704500
      8 C8           5.7320    -0.6440     1.0780 c3         1 665      -0.165400
      9 C9           5.7420     0.4310     2.1900 c3         1 665      -0.174700
     10 C10          4.3340     1.0500     2.0460 c3         1 665       0.111000
     11 N11          3.5060    -0.0000     1.4410 n          1 665      -0.487800
     12 C12          5.9180    -0.2000     3.5480 c          1 665       0.655100
     13 N13          7.0610    -0.8490     3.8470 ns         1 665      -0.564100
     14 O14          5.0310    -0.1230     4.3710 o          1 665      -0.614100
     15 O15          3.8350    -1.9400     0.3110 o          1 665      -0.635500
     16 C17          8.0150    -1.8980     6.1620 ca         1 665      -0.121000
     17 C18          8.0410    -2.5900     7.3580 ca         1 665      -0.011900
     18 C19          6.8830    -3.1690     7.8490 ca         1 665      -0.110000
     19 C20          5.7000    -3.0610     7.1430 ca         1 665      -0.113000
     20 C21          5.6690    -2.3730     5.9440 ca         1 665      -0.091000
     21 C22          6.8280    -1.7910     5.4490 ca         1 665       0.130600
     22 H8          -0.3600     0.8840     0.5120 hc         1 665       0.040450
     23 H1          -0.3600    -0.0030    -1.0220 hc         1 665       0.040450
     24 H2           1.8890    -0.8860    -0.5090 hc         1 665       0.059200
     25 H10          1.8890     0.8860    -0.5090 hc         1 665       0.059200
     26 H3           1.6760     0.8830     1.9530 h1         1 665       0.057700
     27 H41          1.8920    -1.2480     3.1840 hc         1 665       0.059200
     28 H42          1.8910    -2.1330     1.6490 hc         1 665       0.059200
     29 H4          -0.3580    -2.1350     2.6730 hc         1 665       0.040450
     30 H5          -0.3580    -0.3630     2.6730 hc         1 665       0.040450
     31 H7          -1.5930    -1.2470     0.7250 hc         1 665       0.044200
     32 H6          -0.1460    -2.1330     0.2120 hc         1 665       0.044200
     33 H81          6.1560    -0.2460     0.1650 hc         1 665       0.078700
     34 H82          6.2700    -1.5270     1.4020 hc         1 665       0.078700
     35 H9           6.5080     1.1730     1.9990 hc         1 665       0.077700
     36 H101         4.3720     1.9160     1.3970 h1         1 665       0.062700
     37 H102         3.9430     1.3190     3.0190 h1         1 665       0.062700
     38 HN13         7.8380    -0.8090     3.2180 hn         1 665       0.328500
     39 H19          6.9050    -3.7080     8.7880 ha         1 665       0.150000
     40 H20          4.7960    -3.5150     7.5300 ha         1 665       0.151000
     41 H21          4.7410    -2.2890     5.3910 ha         1 665       0.169000
     42 H17          8.9050    -1.3910     5.8110 ha         1 665       0.156000
     43 Br1          9.6580    -2.7410     8.3270 br         1 665      -0.081100
@<TRIPOS>BOND
     1     1     2 1   
     2     1     6 1   
     3     1    22 1   
     4     1    23 1   
     5     2     3 1   
     6     2    24 1   
     7     2    25 1   
     8     3     4 1   
     9     3    11 1   
    10     3    26 1   
    11     4     5 1   
    12     4    27 1   
    13     4    28 1   
    14     5     6 1   
    15     5    29 1   
    16     5    30 1   
    17     6    31 1   
    18     6    32 1   
    19     7     8 1   
    20     7    11 1   
    21     7    15 2   
    22     8     9 1   
    23     8    33 1   
    24     8    34 1   
    25     9    10 1   
    26     9    12 1   
    27     9    35 1   
    28    10    11 1   
    29    10    36 1   
    30    10    37 1   
    31    12    13 1   
    32    12    14 2   
    33    13    21 1   
    34    13    38 1   
    35    43    17 1   
    36    16    17 ar  
    37    16    21 ar  
    38    16    42 1   
    39    17    18 ar  
    40    18    19 ar  
    41    18    39 1   
    42    19    20 ar  
    43    19    40 1   
    44    20    21 ar  
    45    20    41 1   
@<TRIPOS>SUBSTRUCTURE
     1 665         1 TEMP              0 ****  ****    0 ROOT
