@<TRIPOS>MOLECULE
665
   43    42     1     0     0
SMALL
bcc


@<TRIPOS>ATOM
      1 C1         -1.7410   -0.3190   -0.3850 c2        1 665     -0.222000
      2 C2          2.0900   -0.7850   -0.4060 c3        1 665     -0.223000
      3 C3          2.1500   -0.1790    0.9940 c3        1 665     -0.019000
      4 C4          1.0940   -0.8290    1.9040 c3        1 665     -0.164000
      5 C5         -0.3030   -0.3000    1.6400 c3        1 665     -0.136000
      6 C6         -0.9800   -0.9620    0.4980 c2        1 665     -0.166000
      7 C7          4.1410   -1.6140    1.2910 c1        1 665      0.068000
      8 C8          6.3000    0.7910    2.2840 c3        1 665     -0.227000
      9 C9          5.1480    0.6000    3.2460 c3        1 665     -0.100000
     10 C10         3.8150    0.4950    2.5720 c2        1 665     -0.111000
     11 N11         3.5220   -0.2720    1.5530 n3        1 665     -0.049000
     12 C12         5.3500   -0.5710    4.2150 c2        1 665      0.302000
     13 N13         5.8810   -1.7470    3.7040 n         1 665     -0.311000
     14 O14         5.0270   -0.4400    5.4080 o         1 665     -0.326000
     15 O15         5.1480   -1.7800    0.6390 o         1 665     -0.315000
     16 C17         8.4900   -2.4950    5.5050 c1        1 665      0.175000
     17 C18         8.6640   -2.5990    6.8230 c2        1 665     -0.479000
     18 C19         7.5700   -2.9290    7.7800 c3        1 665     -0.064000
     19 C20         6.2880   -3.1670    7.0500 c2        1 665     -0.046000
     20 C21         6.2380   -2.9990    5.7590 c1        1 665     -0.284000
     21 C22         6.2130   -2.8740    4.4440 c2        1 665      0.125000
     22 H8          1.0580   -0.6370   -0.8090 hc        1 665      0.096667
     23 H1         -2.2530   -0.8410   -1.2050 ha        1 665      0.114000
     24 H2         -1.9080    0.7650   -0.3510 ha        1 665      0.114000
     25 H10         2.3120   -1.8800   -0.3820 hc        1 665      0.096667
     26 H3          2.8190   -0.2870   -1.0890 hc        1 665      0.096667
     27 H41         1.9140    0.9260    0.9060 h1        1 665      0.101000
     28 H42         1.1250   -1.9410    1.7640 hc        1 665      0.100000
     29 H4          1.3470   -0.6210    2.9790 hc        1 665      0.100000
     30 H5         -0.9250   -0.4870    2.5610 hc        1 665      0.091500
     31 H7         -0.2710    0.8120    1.4900 hc        1 665      0.091500
     32 H6         -0.8320   -2.0540    0.4350 ha        1 665      0.125000
     33 H81         6.3300    0.0020    1.4930 hc        1 665      0.097667
     34 H82         6.2000    1.7810    1.7750 hc        1 665      0.097667
     35 H9          7.2680    0.7770    2.8420 hc        1 665      0.097667
     36 H101        5.0980    1.5180    3.9090 hc        1 665      0.139000
     37 H102        3.0260    1.1230    3.0380 h4        1 665      0.145000
     38 HN13        6.1170   -1.7760    2.7330 hn        1 665      0.258000
     39 H19         7.8380   -3.8480    8.3710 hc        1 665      0.110500
     40 H20         7.4250   -2.0840    8.5080 hc        1 665      0.110500
     41 H21         5.4250   -3.4850    7.6540 ha        1 665      0.147000
     42 H17         6.4950   -3.7430    3.8060 h4        1 665      0.165000
     43 BR1        10.3790   -2.3120    7.5130 br        1 665      0.079000
@<TRIPOS>BOND
     1    1    6 1   
     2    1   23 1   
     3    1   24 1   
     4    2    3 1   
     5    2   22 1   
     6    2   25 1   
     7    2   26 1   
     8    3    4 1   
     9    3   11 1   
    10    3   27 1   
    11    4    5 1   
    12    4   28 1   
    13    4   29 1   
    14    5    6 1   
    15    5   30 1   
    16    5   31 1   
    17    6   32 1   
    18    7   11 1   
    19    7   15 1   
    20    8    9 1   
    21    8   33 1   
    22    8   34 1   
    23    8   35 1   
    24    9   10 1   
    25    9   12 1   
    26    9   36 1   
    27   10   11 1   
    28   10   37 1   
    29   12   13 1   
    30   12   14 1   
    31   13   21 1   
    32   13   38 1   
    33   16   17 1   
    34   17   18 1   
    35   17   43 1   
    36   18   19 1   
    37   18   39 1   
    38   18   40 1   
    39   19   20 1   
    40   19   41 1   
    41   20   21 1   
    42   21   42 1   
@<TRIPOS>SUBSTRUCTURE
     1 665         1 TEMP              0 ****  ****    0 ROOT
