@<TRIPOS>MOLECULE
molecule
   54    57     1     0     0
SMALL
bcc


@<TRIPOS>ATOM
      1 C1           0.0000     0.0000     0.0000 ca         1 666      -0.132000
      2 C2           1.3820     0.0000     0.0000 ca         1 666      -0.099000
      3 C3           2.0740     0.0000     1.1970 ca         1 666      -0.081300
      4 C4           1.3820    -0.0080     2.3940 ca         1 666      -0.095000
      5 C5          -0.0000    -0.0040     2.3940 ca         1 666       0.053900
      6 C6          -0.6920    -0.0030     1.1970 ca         1 666      -0.102000
      7 C11          3.5810     0.0000     1.1970 c3         1 666       0.027100
      8 C12          4.0820     1.4210     1.1990 ce         1 666      -0.248400
      9 C15          4.3980     2.0060     2.3750 c2         1 666       0.182800
     10 C16          4.8910     3.4280     2.4300 c3         1 666      -0.069200
     11 C17          5.6460     3.7540     1.1350 c3         1 666      -0.076400
     12 C18          4.7060     3.5230    -0.0530 c3         1 666      -0.180400
     13 C19          4.2080     2.1010    -0.0170 c          1 666       0.585300
     14 N26          4.2620     1.2990     3.5320 nu         1 666      -0.691400
     15 C27          3.4220     1.7690     4.5430 ca         1 666       0.194600
     16 C28          3.4170     1.1460     5.7870 ca         1 666      -0.199500
     17 C29          2.5900     1.6080     6.7860 ca         1 666      -0.055000
     18 C30          1.7540     2.7030     6.5500 ca         1 666      -0.166900
     19 C31          1.7570     3.3220     5.2960 ca         1 666      -0.055000
     20 C32          2.5920     2.8580     4.3030 ca         1 666      -0.199500
     21 C37          0.8670     3.1990     7.6170 ce         1 666       0.421900
     22 N38          0.8710     2.6140     8.7680 n2         1 666      -0.463300
     23 N39          0.0290     3.0310     9.8030 ns         1 666      -0.335900
     24 C40         -1.0150     3.8430     9.5510 c          1 666       0.676500
     25 C41         -1.3330     4.2290     8.1270 c3         1 666      -0.153400
     26 C42         -0.0270     4.3800     7.3450 c3         1 666      -0.151000
     27 O45          3.9110     1.5410    -1.0540 o          1 666      -0.540100
     28 O46         -1.6960     4.2630    10.4630 o          1 666      -0.627500
     29 C47          0.6810     5.6650     7.7800 c3         1 666      -0.087100
     30 I54         -1.0480    -0.0070     4.2090 i          1 666      -0.177900
     31 H1          -0.5410     0.0010    -0.9380 ha         1 666       0.136000
     32 H2           1.9230     0.0040    -0.9380 ha         1 666       0.154000
     33 H4           1.9240    -0.0090     3.3330 ha         1 666       0.143000
     34 H6          -1.7750    -0.0010     1.1970 ha         1 666       0.139000
     35 H111         3.9430    -0.5120     2.0800 hc         1 666       0.059700
     36 H112         3.9420    -0.5090     0.3110 hc         1 666       0.059700
     37 H161         5.5580     3.5450     3.2750 hc         1 666       0.067200
     38 H162         4.0470     4.0980     2.5330 hc         1 666       0.067200
     39 H171         5.9630     4.7900     1.1510 hc         1 666       0.053700
     40 H172         6.5100     3.1060     1.0460 hc         1 666       0.053700
     41 H181         3.8660     4.2030     0.0140 hc         1 666       0.073700
     42 H182         5.2440     3.6930    -0.9780 hc         1 666       0.073700
     43 H26          4.8030     0.4690     3.6760 hn         1 666       0.456800
     44 H28          4.0650     0.2970     5.9700 ha         1 666       0.139000
     45 H29          2.5880     1.1240     7.7560 ha         1 666       0.147000
     46 H31          1.1110     4.1710     5.1090 ha         1 666       0.147000
     47 H32          2.5950     3.3380     3.3320 ha         1 666       0.139000
     48 H39          0.2040     2.7230    10.7390 hn         1 666       0.364500
     49 H411        -1.9400     3.4560     7.6710 hc         1 666       0.082200
     50 H412        -1.8690     5.1700     8.1190 hc         1 666       0.082200
     51 H42         -0.2470     4.4260     6.2850 hc         1 666       0.071700
     52 H471        -0.0570     6.4250     8.0040 hc         1 666       0.045367
     53 H472         1.2770     5.4680     8.6630 hc         1 666       0.045367
     54 H473         1.3240     6.0110     6.9800 hc         1 666       0.045367
@<TRIPOS>BOND
     1     1     2 ar
     2     1     6 ar
     3     1    31 1
     4     2     3 ar
     5     2    32 1
     6     3     4 ar
     7     3     7 1
     8     4     5 ar
     9     4    33 1
    10     5     6 ar
    11     5    30 1
    12     6    34 1
    13     7     8 1
    14     7    35 1
    15     7    36 1
    16     8     9 2
    17     8    13 1
    18     9    10 1
    19     9    14 1
    20    10    11 1
    21    10    37 1
    22    10    38 1
    23    11    12 1
    24    11    39 1
    25    11    40 1
    26    12    13 1
    27    12    41 1
    28    12    42 1
    29    13    27 2
    30    14    15 1
    31    14    43 1
    32    15    16 ar
    33    15    20 ar
    34    16    17 ar
    35    16    44 1
    36    17    18 ar
    37    17    45 1
    38    18    19 ar
    39    18    21 1
    40    19    20 ar
    41    19    46 1
    42    20    47 1
    43    21    22 2
    44    21    26 1
    45    22    23 1
    46    23    24 1
    47    23    48 1
    48    24    25 1
    49    24    28 2
    50    25    26 1
    51    25    49 1
    52    25    50 1
    53    26    29 1
    54    26    51 1
    55    29    52 1
    56    29    53 1
    57    29    54 1
@<TRIPOS>SUBSTRUCTURE
     1 666         1 TEMP              0 ****  ****    0 ROOT
