@<TRIPOS>MOLECULE
667
   37    39     1     0     0
SMALL
bcc


@<TRIPOS>ATOM
      1 S1         -0.2710    0.0320    0.3700 s6        1 667      1.575400
      2 O1          0.9930    0.3140    0.7930 o         1 667     -0.541300
      3 O2         -1.3970   -0.1100    1.1230 o         1 667     -0.541300
      4 O3         -0.3000   -1.1080   -0.8080 os        1 667     -0.435800
      5 N1         -0.6860    1.4960   -0.7250 n4        1 667     -0.805500
      6 C1          0.7980   -1.4350   -1.5830 ca        1 667      0.102100
      7 C2          1.6750   -2.4400   -1.1480 ca        1 667     -0.134000
      8 C3          2.7140   -2.8300   -1.9870 ca        1 667     -0.056000
      9 C4          2.9130   -2.2270   -3.2390 ca        1 667     -0.083800
     10 C5          1.9900   -1.2380   -3.6510 ca        1 667      0.170100
     11 C6          0.9250   -0.8260   -2.8330 ca        1 667     -0.173000
     12 C7          3.9990   -2.5930   -4.1450 cc        1 667      0.008600
     13 C8          4.0130   -2.0620   -5.3970 cd        1 667     -0.134400
     14 C9          3.0310   -1.0420   -5.7850 c         1 667      0.714800
     15 C10         5.0180   -3.5500   -3.6250 c3        1 667     -0.048200
     16 C11         4.9680   -2.4030   -6.4890 c3        1 667     -0.044200
     17 O5          2.9030   -0.4280   -6.8380 o         1 667     -0.518500
     18 O4          2.0590   -0.6130   -4.8670 os        1 667     -0.333200
     19 C12         5.3720   -3.8620   -6.5110 c3        1 667     -0.077400
     20 C13         6.5150   -4.1630   -5.5680 c3        1 667     -0.085400
     21 C14         6.3930   -3.4340   -4.2490 c3        1 667     -0.077400
     22 HN11        0.0250    2.2270   -0.6640 hn        1 667      0.472133
     23 HN12       -0.7600    1.2230   -1.7070 hn        1 667      0.472133
     24 H2          1.5310   -2.9280   -0.1720 ha        1 667      0.166000
     25 H3          3.3790   -3.6450   -1.6500 ha        1 667      0.172000
     26 H6          0.2040   -0.0910   -3.2150 ha        1 667      0.151000
     27 H101        5.1440   -3.3800   -2.5200 hc        1 667      0.063200
     28 H102        4.6260   -4.5960   -3.7660 hc        1 667      0.063200
     29 H111        4.4920   -2.1430   -7.4770 hc        1 667      0.079700
     30 H112        5.8790   -1.7500   -6.3910 hc        1 667      0.079700
     31 H121        5.6810   -4.1340   -7.5560 hc        1 667      0.054700
     32 H122        4.4870   -4.5010   -6.2530 hc        1 667      0.054700
     33 H131        6.5550   -5.2700   -5.3860 hc        1 667      0.054200
     34 H132        7.4870   -3.8710   -6.0480 hc        1 667      0.054200
     35 H141        6.6550   -2.3510   -4.3830 hc        1 667      0.054200
     36 H142        7.1430   -3.8650   -3.5310 hc        1 667      0.054200
     37 H13        -1.5810    1.9120   -0.4600 hn        1 667      0.472133
@<TRIPOS>BOND
     1    1    2 2   
     2    1    3 2   
     3    1    4 1   
     4    1    5 1   
     5    4    6 1   
     6    5   22 1   
     7    5   23 1   
     8    5   37 1   
     9    6    7 ar  
    10    6   11 ar  
    11    7    8 ar  
    12    7   24 1   
    13    8    9 ar  
    14    8   25 1   
    15    9   10 ar  
    16    9   12 1   
    17   10   11 ar  
    18   10   18 1   
    19   11   26 1   
    20   12   13 2   
    21   12   15 1   
    22   13   14 1   
    23   13   16 1   
    24   14   17 2   
    25   14   18 1   
    26   15   21 1   
    27   15   27 1   
    28   15   28 1   
    29   16   19 1   
    30   16   29 1   
    31   16   30 1   
    32   19   20 1   
    33   19   31 1   
    34   19   32 1   
    35   20   21 1   
    36   20   33 1   
    37   20   34 1   
    38   21   35 1   
    39   21   36 1   
@<TRIPOS>SUBSTRUCTURE
     1 667         1 TEMP              0 ****  ****    0 ROOT
