@<TRIPOS>MOLECULE
molecule
   70    72     1     0     0
SMALL
bcc


@<TRIPOS>ATOM
      1 F2           0.0000     0.0000     0.0000 f          1 668      -0.217300
      2 C24          1.3980     0.0000     0.0000 c3         1 668       0.587900
      3 F            1.8640    -1.1410    -0.6600 f          1 668      -0.217300
      4 F1           1.8650     1.1440    -0.6590 f          1 668      -0.217300
      5 C3           1.9090     0.0000     1.4420 c3         1 668       0.041800
      6 O            3.3320     0.1340     1.4440 oh         1 668      -0.576800
      7 C1           1.2850     1.1710     2.2040 c3         1 668      -0.084700
      8 C2           1.7980     1.1720     3.6460 c3         1 668      -0.096600
      9 C            1.6720     2.4860     1.5250 c3         1 668      -0.096600
     10 C4           1.5260    -1.2950     2.1100 c          1 668       0.679100
     11 O1           0.5620    -1.3360     2.8460 o          1 668      -0.588100
     12 N            2.2540    -2.4080     1.8910 n          1 668      -0.463800
     13 C9           1.8600    -3.6900     2.4890 c3         1 668       0.096000
     14 C8           1.7540    -4.7410     1.3790 c3         1 668      -0.099400
     15 C7           3.0720    -4.7890     0.6010 c3         1 668      -0.075700
     16 C6           3.3330    -3.4270    -0.0460 c3         1 668      -0.099400
     17 C5           3.4530    -2.3620     1.0430 c3         1 668       0.096000
     18 C10          2.9820    -5.8610    -0.4870 c3         1 668      -0.069700
     19 C14          4.3030    -5.9150    -1.2610 c3         1 668      -0.079400
     20 C13          5.4320    -6.3130    -0.3070 c3         1 668       0.162300
     21 N1           5.1360    -7.6240     0.2840 nh         1 668      -0.590000
     22 C12          3.8980    -7.5840     1.0720 c3         1 668       0.162300
     23 C11          2.7220    -7.2250     0.1590 c3         1 668      -0.079400
     24 C15          6.2020    -8.0750     1.0540 ca         1 668       0.134600
     25 C23          6.1190    -9.3030     1.7030 ca         1 668      -0.161000
     26 C22          7.1760    -9.7510     2.4660 ca         1 668       0.094400
     27 Cl           7.0780   -11.2830     3.2760 cl         1 668      -0.076400
     28 C18          8.3280    -8.9660     2.5860 ca         1 668      -0.167600
     29 C17          8.4010    -7.7330     1.9300 ca         1 668      -0.070000
     30 C16          7.3520    -7.2990     1.1700 ca         1 668      -0.198000
     31 C19          9.4620    -9.4370     3.4010 c          1 668       0.675700
     32 O2           9.9190   -10.5510     3.2230 o          1 668      -0.585100
     33 N2           9.9930    -8.6350     4.3460 n          1 668      -0.495800
     34 C21         11.1930    -9.0550     5.0730 c3         1 668       0.100800
     35 C20          9.3690    -7.3440     4.6440 c3         1 668       0.100800
     36 H1           3.5870     0.7870     0.8140 ho         1 668       0.421000
     37 H2           0.2070     1.0680     2.2040 hc         1 668       0.090700
     38 H3           1.6210     2.1430     4.0910 hc         1 668       0.046367
     39 H4           2.8600     0.9590     3.6520 hc         1 668       0.046367
     40 H5           1.2740     0.4130     4.2160 hc         1 668       0.046367
     41 H6           2.7300     2.4730     1.2890 hc         1 668       0.046367
     42 H7           1.1000     2.6030     0.6120 hc         1 668       0.046367
     43 H8           1.4610     3.3130     2.1920 hc         1 668       0.046367
     44 H9           2.6070    -3.9990     3.2090 h1         1 668       0.064950
     45 H10          0.8990    -3.5820     2.9770 h1         1 668       0.064950
     46 H11          0.9480    -4.4750     0.7060 hc         1 668       0.055450
     47 H12          1.5600    -5.7120     1.8190 hc         1 668       0.055450
     48 H13          3.8820    -5.0250     1.2810 hc         1 668       0.053700
     49 H14          4.2560    -3.4680    -0.6110 hc         1 668       0.055450
     50 H15          2.5110    -3.1770    -0.7040 hc         1 668       0.055450
     51 H16          4.3300    -2.5610     1.6470 h1         1 668       0.064950
     52 H17          3.5350    -1.3840     0.5850 h1         1 668       0.064950
     53 H18          2.1740    -5.6260    -1.1690 hc         1 668       0.059700
     54 H19          4.2260    -6.6490    -2.0540 hc         1 668       0.055700
     55 H20          4.5140    -4.9400    -1.6820 hc         1 668       0.055700
     56 H21          6.3640    -6.3680    -0.8560 h1         1 668       0.044950
     57 H22          5.5140    -5.5740     0.4810 h1         1 668       0.044950
     58 H23          3.9900    -6.8360     1.8500 h1         1 668       0.044950
     59 H24          3.7230    -8.5560     1.5170 h1         1 668       0.044950
     60 H25          2.6240    -7.9780    -0.6140 hc         1 668       0.055700
     61 H26          1.8120    -7.1790     0.7450 hc         1 668       0.055700
     62 H27          5.2210    -9.9030     1.6160 ha         1 668       0.155000
     63 H28          9.2930    -7.1250     2.0200 ha         1 668       0.141000
     64 H29          7.4120    -6.3430     0.6640 ha         1 668       0.142000
     65 H30         10.9410    -9.8590     5.7530 h1         1 668       0.040867
     66 H31         11.9410    -9.3980     4.3680 h1         1 668       0.040867
     67 H32         11.5860    -8.2160     5.6360 h1         1 668       0.040867
     68 H33          9.7300    -6.5990     3.9460 h1         1 668       0.040867
     69 H34          9.6230    -7.0450     5.6540 h1         1 668       0.040867
     70 H35          8.2930    -7.4330     4.5540 h1         1 668       0.040867
@<TRIPOS>BOND
     1     6     5 1   
     2     3     2 1   
     3     1     2 1   
     4     2     5 1   
     5     2     4 1   
     6    11    10 2   
     7     5    10 1   
     8     5     7 1   
     9    10    12 1   
    10     8     7 1   
    11     7     9 1   
    12    12    13 1   
    13    12    17 1   
    14    13    14 1   
    15    17    16 1   
    16    14    15 1   
    17    16    15 1   
    18    15    18 1   
    19    18    23 1   
    20    18    19 1   
    21    23    22 1   
    22    19    20 1   
    23    22    21 1   
    24    20    21 1   
    25    21    24 1   
    26    24    25 ar  
    27    24    30 ar  
    28    25    26 ar  
    29    30    29 ar  
    30    26    27 1   
    31    26    28 ar  
    32    29    28 ar  
    33    28    31 1   
    34    35    33 1   
    35    31    33 1   
    36    31    32 2   
    37    33    34 1   
    38     6    36 1   
    39     7    37 1   
    40     8    38 1   
    41     8    39 1   
    42     8    40 1   
    43     9    41 1   
    44     9    42 1   
    45     9    43 1   
    46    13    44 1   
    47    13    45 1   
    48    14    46 1   
    49    14    47 1   
    50    15    48 1   
    51    16    49 1   
    52    16    50 1   
    53    17    51 1   
    54    17    52 1   
    55    18    53 1   
    56    19    54 1   
    57    19    55 1   
    58    20    56 1   
    59    20    57 1   
    60    22    58 1   
    61    22    59 1   
    62    23    60 1   
    63    23    61 1   
    64    25    62 1   
    65    29    63 1   
    66    30    64 1   
    67    34    65 1   
    68    34    66 1   
    69    34    67 1   
    70    35    68 1   
    71    35    69 1   
    72    35    70 1   
@<TRIPOS>SUBSTRUCTURE
     1 668         1 TEMP              0 ****  ****    0 ROOT
