@<TRIPOS>MOLECULE
molecule
   49    51     1     0     0
SMALL
bcc


@<TRIPOS>ATOM
      1 O01          0.0000     0.0000     0.0000 o          1 669      -0.867800
      2 C02          1.3420     0.0000     0.0000 c          1 669       0.892600
      3 O03          1.9460     0.0000     1.0470 o          1 669      -0.867800
      4 C04          2.0960    -0.0000    -1.3050 c3         1 669      -0.181400
      5 C05          3.6000    -0.0000    -1.0250 c3         1 669      -0.062400
      6 C06          4.3660     0.0010    -2.3490 c3         1 669      -0.084400
      7 C07          5.8700     0.0000    -2.0690 c3         1 669      -0.092400
      8 C08          6.6350     0.0000    -3.3940 c3         1 669       0.042300
      9 N09          8.0750     0.0000    -3.1270 na         1 669      -0.030400
     10 C10          8.8660    -1.1230    -2.9790 cc         1 669      -0.034300
     11 C11         10.1480    -0.7360    -2.7400 cd         1 669      -0.230200
     12 C12         10.1790     0.6790    -2.7340 ca         1 669      -0.070800
     13 C13         11.2010     1.6170    -2.5430 ca         1 669      -0.127000
     14 C14         10.9110     2.9630    -2.5970 ca         1 669       0.053100
     15 O15         11.9020     3.8770    -2.4120 os         1 669      -0.305900
     16 C16         11.3000     5.1680    -2.5240 c3         1 669       0.160700
     17 C17         12.3500     6.2300    -2.3280 ca         1 669      -0.065300
     18 C18         12.6090     6.7220    -1.0610 ca         1 669       0.052400
     19 Cl9         11.7290     6.1090     0.3050 cl         1 669      -0.084400
     20 C20         13.5770     7.6940    -0.8800 ca         1 669      -0.133000
     21 C21         14.2770     8.1820    -1.9680 ca         1 669      -0.120000
     22 C22         14.0150     7.6950    -3.2350 ca         1 669      -0.133000
     23 C23         13.0520     6.7190    -3.4150 ca         1 669       0.052400
     24 Cl4         12.7220     6.1080    -5.0060 cl         1 669      -0.084400
     25 C25          9.6090     3.3950    -2.8400 ca         1 669      -0.235000
     26 C26          8.5940     2.4840    -3.0280 ca         1 669      -0.093000
     27 C27          8.8650     1.1200    -2.9850 ca         1 669      -0.083200
     28 C28          8.3970    -2.5120    -3.0670 c          1 669       0.895800
     29 O29          7.0970    -2.7710    -3.3080 o          1 669      -0.824800
     30 O30          9.1830    -3.4290    -2.9210 o          1 669      -0.824800
     31 H041         1.8340     0.8840    -1.8730 hc         1 669       0.024700
     32 H042         1.8340    -0.8850    -1.8730 hc         1 669       0.024700
     33 H051         3.8610     0.8840    -0.4560 hc         1 669       0.045200
     34 H052         3.8610    -0.8850    -0.4570 hc         1 669       0.045200
     35 H061         4.1040    -0.8840    -2.9180 hc         1 669       0.027700
     36 H062         4.1040     0.8850    -2.9170 hc         1 669       0.027700
     37 H071         6.1320     0.8850    -1.5010 hc         1 669       0.052700
     38 H072         6.1310    -0.8840    -1.5010 hc         1 669       0.052700
     39 H081         6.3740     0.8850    -3.9620 h1         1 669       0.068200
     40 H082         6.3730    -0.8840    -3.9620 h1         1 669       0.068200
     41 H11         10.9940    -1.3940    -2.5820 ha         1 669       0.154000
     42 H13         12.1910     1.2870    -2.2530 ha         1 669       0.125000
     43 H161        10.8560     5.2750    -3.5070 h1         1 669       0.060700
     44 H162        10.5320     5.2750    -1.7670 h1         1 669       0.060700
     45 H20         13.7820     8.0780     0.1120 ha         1 669       0.139000
     46 H21         15.0330     8.9450    -1.8270 ha         1 669       0.130000
     47 H22         14.5650     8.0780    -4.0870 ha         1 669       0.139000
     48 H25          9.3930     4.4550    -2.8800 ha         1 669       0.116000
     49 H26          7.5840     2.8300    -3.2160 ha         1 669       0.122000
@<TRIPOS>BOND
     1     1     2 1   
     2     2     3 1   
     3     2     4 1   
     4     4     5 1   
     5     4    31 1   
     6     4    32 1   
     7     5     6 1   
     8     5    33 1   
     9     5    34 1   
    10     6     7 1   
    11     6    35 1   
    12     6    36 1   
    13     7     8 1   
    14     7    37 1   
    15     7    38 1   
    16     8     9 1   
    17     8    39 1   
    18     8    40 1   
    19     9    10 1   
    20     9    27 1   
    21    10    11 2   
    22    10    28 1   
    23    11    12 1   
    24    11    41 1   
    25    12    13 ar  
    26    12    27 ar  
    27    13    14 ar  
    28    13    42 1   
    29    14    15 1   
    30    14    25 ar  
    31    15    16 1   
    32    16    17 1   
    33    16    43 1   
    34    16    44 1   
    35    17    18 ar  
    36    17    23 ar  
    37    18    19 1   
    38    18    20 ar  
    39    20    21 ar  
    40    20    45 1   
    41    21    22 ar  
    42    21    46 1   
    43    22    23 ar  
    44    22    47 1   
    45    23    24 1   
    46    25    26 ar  
    47    25    48 1   
    48    26    27 ar  
    49    26    49 1   
    50    28    29 1   
    51    28    30 1   
@<TRIPOS>SUBSTRUCTURE
     1 669         1 TEMP              0 ****  ****    0 ROOT
