@<TRIPOS>MOLECULE
669
   49    51     1     0     0
SMALL
bcc


@<TRIPOS>ATOM
      1 O01         0.1390   -0.7480   -0.8780 o         1 669     -0.862300
      2 C02         1.1110    0.0560   -1.0020 c         1 669      0.905600
      3 O03         1.2120    1.1250   -0.3320 o         1 669     -0.862300
      4 C04         2.1880   -0.2750   -2.0460 c3        1 669     -0.187400
      5 C05         3.5870   -0.1270   -1.4960 c3        1 669     -0.065400
      6 C06         4.6300   -0.2000   -2.5930 c3        1 669     -0.077400
      7 C07         6.0380   -0.0830   -2.0460 c3        1 669     -0.097400
      8 C08         7.0380    0.0400   -3.2010 c3        1 669      0.019300
      9 N09         8.3880    0.3520   -2.8180 na        1 669     -0.036400
     10 C10         9.5280   -0.4450   -3.0080 cc        1 669     -0.060300
     11 C11        10.6560    0.2280   -2.5160 cd        1 669     -0.227200
     12 C12        10.2230    1.5000   -2.0100 ca        1 669     -0.082800
     13 C13        10.8800    2.5890   -1.4390 ca        1 669     -0.102000
     14 C14        10.1190    3.6970   -1.0730 ca        1 669      0.020100
     15 O15        10.7610    4.7430   -0.4020 os        1 669     -0.331900
     16 C16        10.7890    5.9730   -1.1210 c3        1 669      0.168700
     17 C17        11.9990    6.0830   -2.0030 ca        1 669     -0.081300
     18 C18        13.2710    6.3160   -1.4510 ca        1 669      0.043400
     19 CL9        13.4800    6.5000    0.2300 cl        1 669     -0.078900
     20 C20        14.4110    6.4080   -2.2560 ca        1 669     -0.137500
     21 C21        14.2930    6.2740   -3.6360 ca        1 669     -0.121000
     22 C22        13.0440    6.0580   -4.2120 ca        1 669     -0.137500
     23 C23        11.9070    5.9690   -3.4010 ca        1 669      0.043400
     24 CL4        10.4150    5.7150   -4.1730 cl        1 669     -0.078900
     25 C25         8.7220    3.7510   -1.2640 ca        1 669     -0.170000
     26 C26         8.0470    2.6850   -1.8340 ca        1 669     -0.120000
     27 C27         8.7830    1.5500   -2.2130 ca        1 669     -0.070200
     28 C28         9.5720   -1.8030   -3.6950 c         1 669      0.928800
     29 O29         8.6460   -2.1210   -4.4900 o         1 669     -0.817800
     30 O30        10.5760   -2.5230   -3.4440 o         1 669     -0.817800
     31 H041        2.0460    0.4250   -2.9090 hc        1 669      0.018200
     32 H042        2.0300   -1.3170   -2.4220 hc        1 669      0.018200
     33 H051        3.7810   -0.9320   -0.7410 hc        1 669      0.041700
     34 H052        3.6620    0.8560   -0.9580 hc        1 669      0.041700
     35 H061        4.4440    0.6260   -3.3310 hc        1 669      0.028700
     36 H062        4.5260   -1.1670   -3.1500 hc        1 669      0.028700
     37 H071        6.1060    0.8090   -1.3700 hc        1 669      0.044200
     38 H072        6.2820   -0.9870   -1.4300 hc        1 669      0.044200
     39 H081        6.6810    0.8580   -3.8930 h1        1 669      0.078200
     40 H082        7.0620   -0.9330   -3.7800 h1        1 669      0.078200
     41 H11        11.6650   -0.1680   -2.5220 ha        1 669      0.156000
     42 H13        11.9640    2.5710   -1.2720 ha        1 669      0.128000
     43 H161       10.8370    6.7560   -0.3130 h1        1 669      0.060200
     44 H162        9.8470    6.1100   -1.7140 h1        1 669      0.060200
     45 H20        15.3970    6.5760   -1.8000 ha        1 669      0.141500
     46 H21        15.1880    6.3330   -4.2720 ha        1 669      0.130000
     47 H22        12.9520    5.9440   -5.3030 ha        1 669      0.141500
     48 H25         8.1720    4.6470   -0.9460 ha        1 669      0.117000
     49 H26         6.9590    2.7240   -1.9840 ha        1 669      0.137000
@<TRIPOS>BOND
     1    1    2 1   
     2    2    3 1   
     3    2    4 1   
     4    4    5 1   
     5    4   31 1   
     6    4   32 1   
     7    5    6 1   
     8    5   33 1   
     9    5   34 1   
    10    6    7 1   
    11    6   35 1   
    12    6   36 1   
    13    7    8 1   
    14    7   37 1   
    15    7   38 1   
    16    8    9 1   
    17    8   39 1   
    18    8   40 1   
    19    9   10 1   
    20    9   27 1   
    21   10   11 2   
    22   10   28 1   
    23   11   12 1   
    24   11   41 1   
    25   12   13 ar  
    26   12   27 ar  
    27   13   14 ar  
    28   13   42 1   
    29   14   15 1   
    30   14   25 ar  
    31   15   16 1   
    32   16   17 1   
    33   16   43 1   
    34   16   44 1   
    35   17   18 ar  
    36   17   23 ar  
    37   18   19 1   
    38   18   20 ar  
    39   20   21 ar  
    40   20   45 1   
    41   21   22 ar  
    42   21   46 1   
    43   22   23 ar  
    44   22   47 1   
    45   23   24 1   
    46   25   26 ar  
    47   25   48 1   
    48   26   27 ar  
    49   26   49 1   
    50   28   29 1   
    51   28   30 1   
@<TRIPOS>SUBSTRUCTURE
     1 669         1 TEMP              0 ****  ****    0 ROOT
