@<TRIPOS>MOLECULE
molecule
   62    67     1     0     0
SMALL
bcc


@<TRIPOS>ATOM
      1 C10          0.0000     0.0000     0.0000 ca         1 66A       0.017200
      2 C11          1.3930     0.0000     0.0000 ca         1 66A      -0.156000
      3 C12          2.0820     0.0000     1.2020 ca         1 66A       0.142100
      4 C13          1.3840    -0.0010     2.4020 ca         1 66A      -0.228000
      5 C14          0.0010    -0.0020     2.4030 ca         1 66A      -0.094000
      6 C15         -0.6930     0.0050     1.2090 ca         1 66A      -0.162000
      7 C19          6.2660     1.1940     2.2020 ca         1 66A      -0.102500
      8 C20          7.6370     1.1940     2.0250 ca         1 66A      -0.132500
      9 C21          8.3210    -0.0030     1.9300 ca         1 66A      -0.117000
     10 C22          7.6340    -1.2000     2.0120 ca         1 66A      -0.132500
     11 C27         -0.7950     2.9450    -5.6280 cy         1 66A      -0.083700
     12 C31          0.1130     6.5990    -5.5960 cy         1 66A       0.103300
     13 C32         -0.1100     7.1050    -7.0290 cy         1 66A      -0.110400
     14 C33         -0.1450     5.6090    -7.3680 cy         1 66A       0.103300
     15 C29          0.0850     4.1790    -5.4220 c3         1 66A       0.137800
     16 C26         -0.1300     1.6320    -5.1840 cy         1 66A      -0.105400
     17 C28         -1.8160     2.7190    -4.5010 cy         1 66A      -0.105400
     18 C25         -1.5010     1.2180    -4.6240 cy         1 66A       0.031000
     19 N30         -0.5860     5.3600    -5.9830 nq         1 66A      -0.653600
     20 C06         -2.5090    -1.9630    -1.0450 ca         1 66A       0.770200
     21 N05         -3.4890    -2.5660    -1.7130 nb         1 66A      -0.828000
     22 C04         -3.8200    -2.1770    -2.9310 ca         1 66A       0.730900
     23 C07         -1.8380    -0.9000    -1.6640 ca         1 66A      -0.381400
     24 C02         -2.2230    -0.5210    -2.9620 ca         1 66A       0.515800
     25 N03         -3.2140    -1.1890    -3.5520 nb         1 66A      -0.795000
     26 N01         -1.4250     0.5260    -3.3360 na         1 66A      -0.143100
     27 C08         -0.7430     0.0010    -1.2820 cc         1 66A      -0.080400
     28 C09         -0.5460     0.8340    -2.3340 cd         1 66A      -0.088100
     29 O16          3.4400    -0.0010     1.2070 os         1 66A      -0.324900
     30 C17          4.0850    -0.0010     2.4820 c3         1 66A       0.187700
     31 C18          5.5800    -0.0020     2.2900 ca         1 66A      -0.096300
     32 C23          6.2640    -1.1990     2.1890 ca         1 66A      -0.102500
     33 H1           1.9360    -0.0020    -0.9370 ha         1 66A       0.147000
     34 H2           1.9250    -0.0040     3.3410 ha         1 66A       0.134000
     35 H3          -0.5390     0.0000     3.3420 ha         1 66A       0.131000
     36 H4          -1.7760     0.0050     1.2130 ha         1 66A       0.145000
     37 H5           5.7300     2.1330     2.2760 ha         1 66A       0.133500
     38 H6           8.1750     2.1330     1.9580 ha         1 66A       0.132000
     39 H7           9.3960    -0.0030     1.7910 ha         1 66A       0.131000
     40 H8           8.1700    -2.1380     1.9360 ha         1 66A       0.132000
     41 H9          -1.2390     2.8750    -6.6140 hc         1 66A       0.078700
     42 H11         -0.4280     7.1750    -4.8560 h1         1 66A       0.055200
     43 H12          0.7480     7.6210    -7.4430 hc         1 66A       0.063200
     44 H13         -1.0630     7.6010    -7.1680 hc         1 66A       0.063200
     45 H14         -0.9020     5.3600    -8.1030 h1         1 66A       0.055200
     46 H15          0.8360     5.2010    -7.5790 h1         1 66A       0.055200
     47 H16         -1.2090    -2.3510     0.5220 hn         1 66A       0.445300
     48 H17         -2.8680    -2.7380     0.8440 hn         1 66A       0.445300
     49 H18          1.0360     4.0330    -5.9210 h1         1 66A       0.039200
     50 H19          0.2540     4.3300    -4.3630 h1         1 66A       0.039200
     51 H20          0.1920     1.0180    -6.0160 hc         1 66A       0.065450
     52 H21          0.6170     1.7760    -4.4130 hc         1 66A       0.065450
     53 H22         -2.8300     2.9640    -4.7910 hc         1 66A       0.065450
     54 H23         -1.5020     3.1410    -3.5540 hc         1 66A       0.065450
     55 H24         -2.1200     0.7210    -5.3610 h1         1 66A       0.110700
     56 H26         -4.6240    -2.6950    -3.4400 h5         1 66A       0.057100
     57 H27          0.1950     1.6230    -2.3750 h4         1 66A       0.175000
     58 H28          3.7920    -0.8860     3.0340 h1         1 66A       0.041200
     59 H29          3.7930     0.8830     3.0350 h1         1 66A       0.041200
     60 H30          5.7260    -2.1370     2.2560 ha         1 66A       0.133500
     61 N24         -2.1660    -2.3720     0.2310 nv         1 66A      -1.016500
     62 H10          1.1590     6.4380    -5.3640 h1         1 66A       0.055200
@<TRIPOS>BOND
     1     5     4 ar  
     2     5     6 ar  
     3     4     3 ar  
     4    30    31 1   
     5    30    29 1   
     6    32    31 ar  
     7    32    10 ar  
     8     6     1 ar  
     9    31     7 ar  
    10    10     9 ar  
    11     3    29 1   
    12     3     2 ar  
    13     7     8 ar  
    14     9     8 ar  
    15     1     2 ar  
    16     1    27 1   
    17    61    20 1   
    18    27    23 1   
    19    27    28 2   
    20    20    23 ar  
    21    20    21 ar  
    22    23    24 ar  
    23    21    22 ar  
    24    28    26 1   
    25    13    12 1   
    26    13    14 1   
    27    12    19 1   
    28    24    26 1   
    29    24    25 ar  
    30    26    18 1   
    31    22    25 ar  
    32    17    18 1   
    33    17    11 1   
    34    14    19 1   
    35    19    15 1   
    36    18    16 1   
    37    15    11 1   
    38    11    16 1   
    39     2    33 1   
    40     4    34 1   
    41     5    35 1   
    42     6    36 1   
    43     7    37 1   
    44     8    38 1   
    45     9    39 1   
    46    10    40 1   
    47    11    41 1   
    48    12    62 1   
    49    12    42 1   
    50    13    43 1   
    51    13    44 1   
    52    14    45 1   
    53    14    46 1   
    54    61    47 1   
    55    61    48 1   
    56    15    49 1   
    57    15    50 1   
    58    16    51 1   
    59    16    52 1   
    60    17    53 1   
    61    17    54 1   
    62    18    55 1   
    63    22    56 1   
    64    28    57 1   
    65    30    58 1   
    66    30    59 1   
    67    32    60 1   
@<TRIPOS>SUBSTRUCTURE
     1 66A         1 TEMP              0 ****  ****    0 ROOT
