@<TRIPOS>MOLECULE
molecule
   62    61     1     0     0
SMALL
bcc


@<TRIPOS>ATOM
      1 O25          0.0000     0.0000     0.0000 o          1 66B      -0.856800
      2 C24          1.2080     0.0000     0.0000 c          1 66B       0.890600
      3 O26          1.8780     0.0000     1.1630 o          1 66B      -0.856800
      4 C23          1.9620    -0.0080    -1.3050 c3         1 66B      -0.181400
      5 C22          0.9690    -0.0130    -2.4680 c3         1 66B      -0.065400
      6 C21          1.7350    -0.0210    -3.7920 c3         1 66B      -0.079400
      7 C20          0.7410    -0.0270    -4.9560 c3         1 66B      -0.180400
      8 C19          1.4960    -0.0340    -6.2610 c          1 66B       0.563100
      9 O27          2.7030    -0.0340    -6.2590 o          1 66B      -0.530100
     10 C18          0.7430    -0.0400    -7.5660 c3         1 66B      -0.159200
     11 C17          1.7230    -0.0470    -8.7110 c2         1 66B      -0.136200
     12 C16          1.6540    -0.9820    -9.6270 c2         1 66B      -0.210200
     13 C15          2.6340    -0.9880   -10.7710 c3         1 66B      -0.049200
     14 C14          3.3400    -2.3440   -10.8300 c3         1 66B       0.014800
     15 C13          4.3200    -2.3510   -11.9760 c2         1 66B      -0.232200
     16 C12          5.5670    -2.6940   -11.7680 c2         1 66B      -0.211200
     17 C11          5.9870    -3.2380   -10.4270 c3         1 66B       0.260000
     18 C10          6.6850    -4.5600   -10.6180 c2         1 66B      -0.188200
     19 C9           7.8660    -4.7580   -10.0880 c2         1 66B      -0.186200
     20 C8           8.4560    -3.7320    -9.1540 c3         1 66B       0.235000
     21 C7           8.8520    -4.3980    -7.8620 c2         1 66B      -0.190200
     22 C6          10.0700    -4.2570    -7.3990 c2         1 66B      -0.206200
     23 C5          11.0200    -3.2920    -8.0600 c3         1 66B       0.024000
     24 C4          11.5800    -2.3500    -7.0240 c2         1 66B      -0.261200
     25 C3          12.8770    -2.2100    -6.9000 c2         1 66B      -0.176200
     26 C2          13.8040    -2.8600    -7.8960 c3         1 66B      -0.085200
     27 C1          14.7720    -1.8120    -8.4500 c3         1 66B      -0.085100
     28 H2           2.5860     0.8760    -1.3670 hc         1 66B       0.029700
     29 H3           2.5840    -0.8930    -1.3570 hc         1 66B       0.029700
     30 H4           0.3470     0.8720    -2.4160 hc         1 66B       0.043700
     31 H5           0.3450    -0.8970    -2.4060 hc         1 66B       0.043700
     32 H6           2.3570    -0.9060    -3.8450 hc         1 66B       0.043200
     33 H7           2.3580     0.8620    -3.8540 hc         1 66B       0.043200
     34 H8           0.1180    -0.9100    -4.8940 hc         1 66B       0.063200
     35 H9           0.1190     0.8590    -4.9030 hc         1 66B       0.063200
     36 H10          0.1210     0.8440    -7.6280 hc         1 66B       0.068200
     37 H11          0.1200    -0.9250    -7.6180 hc         1 66B       0.068200
     38 H12          2.4840     0.7210    -8.7770 ha         1 66B       0.136000
     39 H14          0.8930    -1.7500    -9.5610 ha         1 66B       0.122000
     40 H16          2.1050    -0.8160   -11.7010 hc         1 66B       0.056700
     41 H17          3.3680    -0.2050   -10.6230 hc         1 66B       0.056700
     42 H18          3.8690    -2.5170    -9.9010 hc         1 66B       0.050200
     43 H19          2.6060    -3.1270   -10.9790 hc         1 66B       0.050200
     44 H20          3.8150    -3.2580   -11.6670 ha         1 66B       0.124000
     45 H21          5.8140    -2.0310   -10.9480 ha         1 66B      -0.002000
     46 H22          6.6620    -2.5390    -9.9490 hc         1 66B       0.055700
     47 H23          5.1110    -3.3790    -9.8040 hc         1 66B       0.055700
     48 H24          6.1030    -4.3590    -9.7260 ha         1 66B       0.038000
     49 H25          8.3960    -3.8940   -10.4690 ha         1 66B       0.031000
     50 H26          7.7200    -2.9620    -8.9530 hc         1 66B       0.054200
     51 H27          9.3290    -3.2860    -9.6130 hc         1 66B       0.054200
     52 H28          8.5280    -3.3640    -7.8780 ha         1 66B       0.028000
     53 H29         10.6460    -4.5520    -8.2670 ha         1 66B       0.071000
     54 H30         10.4900    -2.7240    -8.8150 hc         1 66B       0.065200
     55 H31         11.8290    -3.8420    -8.5230 hc         1 66B       0.065200
     56 H32         11.6320    -3.4320    -7.0360 ha         1 66B       0.189000
     57 H33         13.1740    -3.2470    -6.7940 ha         1 66B       0.146000
     58 H34         13.2240    -3.2810    -8.7080 hc         1 66B       0.041700
     59 H35         14.3650    -3.6470    -7.4070 hc         1 66B       0.041700
     60 H36         15.4330    -2.2780    -9.1710 hc         1 66B       0.037700
     61 H37         14.2110    -1.0210    -8.9320 hc         1 66B       0.037700
     62 H38         15.3570    -1.3970    -7.6390 hc         1 66B       0.037700
@<TRIPOS>BOND
     1    21    22 2
     2    21    20 1
     3    19    18 2
     4    19    20 1
     5    22    23 1
     6    27    26 1
     7    18    17 1
     8    24    25 2
     9    24    23 1
    10    25    26 1
    11    17    16 1
    12    16    15 2
    13    15    14 1
    14    14    13 1
    15    13    12 1
    16    12    11 2
    17    11    10 1
    18     9     8 2
    19    10     8 1
    20     8     7 1
    21     7     6 1
    22     5     6 1
    23     5     4 1
    24     4     2 1
    25     2     1 1
    26     2     3 1
    27     4    28 1
    28     4    29 1
    29     5    30 1
    30     5    31 1
    31     6    32 1
    32     6    33 1
    33     7    34 1
    34     7    35 1
    35    10    36 1
    36    10    37 1
    37    11    38 1
    38    12    39 1
    39    13    40 1
    40    13    41 1
    41    14    42 1
    42    14    43 1
    43    15    44 1
    44    16    45 1
    45    17    46 1
    46    17    47 1
    47    18    48 1
    48    19    49 1
    49    20    50 1
    50    20    51 1
    51    21    52 1
    52    22    53 1
    53    23    54 1
    54    23    55 1
    55    24    56 1
    56    25    57 1
    57    26    58 1
    58    26    59 1
    59    27    60 1
    60    27    61 1
    61    27    62 1
@<TRIPOS>SUBSTRUCTURE
     1 66B         1 TEMP              0 ****  ****    0 ROOT
