@<TRIPOS>MOLECULE
66B
   62    61     1     0     0
SMALL
bcc


@<TRIPOS>ATOM
      1 O25         3.4910    2.8340   -2.5330 o         1 66B     -0.849800
      2 C24         3.8150    1.7760   -1.9200 c         1 66B      0.908600
      3 O26         4.0020    1.7100   -0.6720 o         1 66B     -0.849800
      4 C23         3.9690    0.4770   -2.7340 c3        1 66B     -0.197400
      5 C22         4.6990    0.7280   -4.0300 c3        1 66B     -0.067400
      6 C21         4.5670   -0.4380   -4.9890 c3        1 66B     -0.072400
      7 C20         5.2650   -0.1360   -6.3000 c3        1 66B     -0.185400
      8 C19         5.1790   -1.2720   -7.2730 c         1 66B      0.586100
      9 O27         6.1840   -1.8210   -7.7460 o         1 66B     -0.576100
     10 C18         3.8010   -1.7380   -7.6750 c3        1 66B     -0.160200
     11 C17         2.9560   -0.6260   -8.1730 c2        1 66B     -0.159200
     12 C16         2.8000   -0.2970   -9.4590 c2        1 66B     -0.170200
     13 C15         3.4920   -0.9470  -10.5980 c3        1 66B     -0.049200
     14 C14         2.7020   -2.1320  -11.1320 c3        1 66B     -0.042200
     15 C13         3.4380   -2.8270  -12.2160 c2        1 66B     -0.182200
     16 C12         4.4140   -3.7220  -12.0390 c2        1 66B     -0.158200
     17 C11         4.9460   -4.1520  -10.7220 c3        1 66B     -0.026000
     18 C10         5.6950   -5.4290  -10.8030 c2        1 66B     -0.182200
     19 C9          6.7870   -5.7280  -10.0930 c2        1 66B     -0.157200
     20 C8          7.4570   -4.8130   -9.1380 c3        1 66B     -0.028000
     21 C7          8.3950   -5.5080   -8.2230 c2        1 66B     -0.181200
     22 C6          9.1560   -4.8750   -7.3230 c2        1 66B     -0.160200
     23 C5          9.1620   -3.4040   -7.1440 c3        1 66B     -0.032000
     24 C4          9.8060   -2.9600   -5.8850 c2        1 66B     -0.177200
     25 C3          9.8000   -1.6940   -5.4520 c2        1 66B     -0.163200
     26 C2          9.1650   -0.5660   -6.1730 c3        1 66B     -0.062200
     27 C1          8.8600    0.5980   -5.2650 c3        1 66B     -0.095100
     28 H2          2.9400    0.0860   -2.9420 hc        1 66B      0.021200
     29 H3          4.5090   -0.2850   -2.1200 hc        1 66B      0.021200
     30 H4          5.7850    0.9170   -3.8200 hc        1 66B      0.048200
     31 H5          4.2840    1.6610   -4.4990 hc        1 66B      0.048200
     32 H6          5.0070   -1.3600   -4.5280 hc        1 66B      0.032700
     33 H7          3.4800   -0.6420   -5.1780 hc        1 66B      0.032700
     34 H8          6.3440    0.1090   -6.1010 hc        1 66B      0.071700
     35 H9          4.7910    0.7660   -6.7740 hc        1 66B      0.071700
     36 H10         3.3200   -2.1980   -6.7680 hc        1 66B      0.071200
     37 H11         3.8980   -2.5450   -8.4530 hc        1 66B      0.071200
     38 H12         2.4320   -0.0570   -7.3850 ha        1 66B      0.138000
     39 H14         2.1220    0.5280   -9.7340 ha        1 66B      0.120000
     40 H16         4.5130   -1.2990  -10.2840 hc        1 66B      0.050700
     41 H17         3.6390   -0.1990  -11.4220 hc        1 66B      0.050700
     42 H18         1.7100   -1.7750  -11.5150 hc        1 66B      0.044700
     43 H19         2.4930   -2.8450  -10.2880 hc        1 66B      0.044700
     44 H20         3.1270   -2.5530  -13.2380 ha        1 66B      0.113000
     45 H21         4.8970   -4.1860  -12.9160 ha        1 66B      0.117000
     46 H22         5.6020   -3.3330  -10.3080 hc        1 66B      0.065700
     47 H23         4.0990   -4.2820   -9.9880 hc        1 66B      0.065700
     48 H24         5.2740   -6.1710  -11.5020 ha        1 66B      0.113000
     49 H25         7.2580   -6.7190  -10.2140 ha        1 66B      0.113000
     50 H26         8.0210   -4.0280   -9.7200 hc        1 66B      0.071200
     51 H27         6.6920   -4.2510   -8.5260 hc        1 66B      0.071200
     52 H28         8.4380   -6.6060   -8.3080 ha        1 66B      0.113000
     53 H29         9.8280   -5.4500   -6.6650 ha        1 66B      0.114000
     54 H30         8.1010   -3.0150   -7.1810 hc        1 66B      0.071200
     55 H31         9.6960   -2.9330   -8.0190 hc        1 66B      0.071200
     56 H32        10.3050   -3.7430   -5.2900 ha        1 66B      0.112000
     57 H33        10.2890   -1.4330   -4.4980 ha        1 66B      0.118000
     58 H34         8.2150   -0.9130   -6.6710 hc        1 66B      0.053700
     59 H35         9.8560   -0.2320   -6.9960 hc        1 66B      0.053700
     60 H36         8.4100    1.4350   -5.8510 hc        1 66B      0.038033
     61 H37         9.7880    0.9730   -4.7700 hc        1 66B      0.038033
     62 H38         8.1330    0.3000   -4.4690 hc        1 66B      0.038033
@<TRIPOS>BOND
     1    1    2 1   
     2    2    3 1   
     3    2    4 1   
     4    4    5 1   
     5    4   28 1   
     6    4   29 1   
     7    5    6 1   
     8    5   30 1   
     9    5   31 1   
    10    6    7 1   
    11    6   32 1   
    12    6   33 1   
    13    7    8 1   
    14    7   34 1   
    15    7   35 1   
    16    8    9 2   
    17    8   10 1   
    18   10   11 1   
    19   10   36 1   
    20   10   37 1   
    21   11   12 2   
    22   11   38 1   
    23   12   13 1   
    24   12   39 1   
    25   13   14 1   
    26   13   40 1   
    27   13   41 1   
    28   14   15 1   
    29   14   42 1   
    30   14   43 1   
    31   15   16 2   
    32   15   44 1   
    33   16   17 1   
    34   16   45 1   
    35   17   18 1   
    36   17   46 1   
    37   17   47 1   
    38   18   19 2   
    39   18   48 1   
    40   19   20 1   
    41   19   49 1   
    42   20   21 1   
    43   20   50 1   
    44   20   51 1   
    45   21   22 2   
    46   21   52 1   
    47   22   23 1   
    48   22   53 1   
    49   23   24 1   
    50   23   54 1   
    51   23   55 1   
    52   24   25 2   
    53   24   56 1   
    54   25   26 1   
    55   25   57 1   
    56   26   27 1   
    57   26   58 1   
    58   26   59 1   
    59   27   60 1   
    60   27   61 1   
    61   27   62 1   
@<TRIPOS>SUBSTRUCTURE
     1 66B         1 TEMP              0 ****  ****    0 ROOT
