@<TRIPOS>MOLECULE
molecule
   46    48     1     0     0
SMALL
bcc


@<TRIPOS>ATOM
      1 C1           0.0000     0.0000     0.0000 ca         1 66F      -0.120300
      2 C2          -0.7520    -0.0010    -1.3050 c3         1 66F       0.244500
      3 C3          -1.6500     1.2370    -1.3630 c3         1 66F      -0.098100
      4 C4          -1.6300    -1.2550    -1.3760 c3         1 66F      -0.210600
      5 S5          -2.2690    -1.3870    -3.0780 s6         1 66F       1.274900
      6 N6          -0.8620    -1.3470    -3.9700 nh         1 66F      -0.758500
      7 C7           0.1380    -0.5040    -3.5460 c2         1 66F       0.695100
      8 N8           0.1980     0.0560    -2.3990 n2         1 66F      -0.636900
      9 N9           1.1590    -0.2410    -4.4290 nz         1 66F      -0.750600
     10 C10         -0.6960    -2.1800    -5.1630 c3         1 66F       0.194100
     11 O11         -2.9680    -0.2070    -3.4510 o          1 66F      -0.564800
     12 O12         -2.8140    -2.6780    -3.3160 o          1 66F      -0.564800
     13 C13          1.3820     0.0000     0.0000 ca         1 66F      -0.128000
     14 C14          2.0750     0.0000     1.2030 ca         1 66F       0.056600
     15 C15          1.3770     0.0010     2.4040 ca         1 66F      -0.084000
     16 C16         -0.0030     0.0010     2.4000 ca         1 66F      -0.131000
     17 C17         -0.6930     0.0060     1.1980 ca         1 66F       0.131900
     18 F18         -2.0430     0.0050     1.1960 f          1 66F      -0.137900
     19 N19          3.4750     0.0010     1.2050 ns         1 66F      -0.467100
     20 C20          7.6940     1.5260     3.0330 ca         1 66F      -0.139000
     21 C21          8.3410     0.8980     1.9760 ca         1 66F       0.047600
     22 C22          7.5900     0.2220     1.0230 ca         1 66F       0.379200
     23 N23          6.2800     0.1700     1.1120 nb         1 66F      -0.675000
     24 C24          5.6240     0.7570     2.1050 ca         1 66F       0.338800
     25 C25          6.3120     1.4480     3.0990 ca         1 66F      -0.150300
     26 C26          4.1470     0.6720     2.1600 c          1 66F       0.586600
     27 O27          3.5400     1.2080     3.0680 o          1 66F      -0.584100
     28 H1          -2.6650     0.9600    -1.1040 hc         1 66F       0.074700
     29 H2          -1.6330     1.6500    -2.3650 hc         1 66F       0.074700
     30 H3          -1.2880     1.9790    -0.6610 hc         1 66F       0.074700
     31 H4          -0.9670    -2.0990    -1.2320 h1         1 66F       0.139700
     32 H5          -2.4870    -1.0630    -0.7420 h1         1 66F       0.139700
     33 H6           1.6710    -1.0830    -4.6060 hn         1 66F       0.477133
     34 H7           1.7710     0.4460    -4.0360 hn         1 66F       0.477133
     35 H8          -0.5720    -1.5460    -6.0320 h1         1 66F       0.070367
     36 H9           0.1790    -2.8080    -5.0460 h1         1 66F       0.070367
     37 H10         -1.5730    -2.8040    -5.2930 h1         1 66F       0.070367
     38 H11          1.9240    -0.0010    -0.9380 ha         1 66F       0.129000
     39 H12          1.9160    -0.0010     3.3440 ha         1 66F       0.188000
     40 H13         -0.5480     0.0030     3.3370 ha         1 66F       0.169000
     41 H14          3.9760    -0.5220     0.5140 hn         1 66F       0.344500
     42 H15          8.2570     2.0580     3.7900 ha         1 66F       0.171000
     43 H16          8.0900    -0.2700     0.1980 h4         1 66F       0.042100
     44 H17          5.7740     1.9260     3.9090 ha         1 66F       0.177000
     45 H93          0.7770     0.0970    -5.2900 hn         1 66F       0.477133
     46 F28          9.6870     0.9450     1.8770 f          1 66F      -0.116900
@<TRIPOS>BOND
     1    16    15 ar
     2    16    17 ar
     3    18    17 1
     4    15    14 ar
     5    27    26 2
     6    17     1 ar
     7    14    19 1
     8    14    13 ar
     9    26    19 1
    10    26    24 1
    11     1    13 ar
    12     1     2 1
    13     3     2 1
    14    25    24 ar
    15    25    20 ar
    16    24    23 ar
    17     2     4 1
    18     2     8 1
    19     4     5 1
    20    20    21 ar
    21    23    22 ar
    22    12     5 2
    23     8     7 2
    24    21    22 ar
    25    21    46 1
    26     5    11 2
    27     5     6 1
    28     7     6 1
    29     7     9 1
    30     6    10 1
    31     3    28 1
    32     3    29 1
    33     3    30 1
    34     4    31 1
    35     4    32 1
    36     9    33 1
    37     9    34 1
    38    10    35 1
    39    10    36 1
    40    10    37 1
    41    13    38 1
    42    15    39 1
    43    16    40 1
    44    19    41 1
    45    20    42 1
    46    22    43 1
    47    25    44 1
    48    45     9 1
@<TRIPOS>SUBSTRUCTURE
     1 66F         1 TEMP              0 ****  ****    0 ROOT
