@<TRIPOS>MOLECULE
66F
   46    48     1     0     0
SMALL
bcc


@<TRIPOS>ATOM
      1 C1           0.0000     0.0000     0.0000 ca         1 66F      -0.139300
      2 C2          -0.7520    -0.0010    -1.3050 c3         1 66F       0.217500
      3 C3          -1.6500     1.2370    -1.3630 c3         1 66F      -0.017100
      4 C4          -1.6300    -1.2550    -1.3760 c3         1 66F      -0.012600
      5 S5          -2.2690    -1.3870    -3.0780 s6         1 66F       0.944900
      6 N6          -0.8620    -1.3470    -3.9700 nh         1 66F      -0.468500
      7 C7           0.1380    -0.5040    -3.5460 c2         1 66F       0.349100
      8 N8           0.1980     0.0560    -2.3990 n2         1 66F      -0.483900
      9 N9           1.1590    -0.2410    -4.4290 nz         1 66F       0.153400
     10 C10         -0.6960    -2.1800    -5.1630 c3         1 66F       0.245100
     11 O11         -2.9680    -0.2070    -3.4510 o          1 66F      -0.521800
     12 O12         -2.8140    -2.6780    -3.3160 o          1 66F      -0.521800
     13 C13          1.3820     0.0000     0.0000 ca         1 66F      -0.108000
     14 C14          2.0750     0.0000     1.2030 ca         1 66F      -0.082400
     15 C15          1.3770     0.0010     2.4040 ca         1 66F      -0.058000
     16 C16         -0.0030     0.0010     2.4000 ca         1 66F      -0.089000
     17 C17         -0.6930     0.0060     1.1980 ca         1 66F       0.107900
     18 F18         -2.0430     0.0050     1.1960 f          1 66F      -0.123900
     19 N19          3.4750     0.0010     1.2050 ns         1 66F      -0.025100
     20 C20          7.6940     1.5260     3.0330 ca         1 66F      -0.105000
     21 C21          8.3410     0.8980     1.9760 ca         1 66F       0.028600
     22 C22          7.5900     0.2220     1.0230 ca         1 66F       0.366200
     23 N23          6.2800     0.1700     1.1120 nb         1 66F      -0.562000
     24 C24          5.6240     0.7570     2.1050 ca         1 66F       0.280800
     25 C25          6.3120     1.4480     3.0990 ca         1 66F      -0.109300
     26 C26          4.1470     0.6720     2.1600 c          1 66F       0.486600
     27 O27          3.5400     1.2080     3.0680 o          1 66F      -0.626100
     28 H1          -2.6650     0.9600    -1.1040 hc         1 66F       0.040700
     29 H2          -1.6330     1.6500    -2.3650 hc         1 66F       0.040700
     30 H3          -1.2880     1.9790    -0.6610 hc         1 66F       0.040700
     31 H4          -0.9670    -2.0990    -1.2320 h1         1 66F       0.110200
     32 H5          -2.4870    -1.0630    -0.7420 h1         1 66F       0.110200
     33 H6           1.6710    -1.0830    -4.6060 hn         1 66F       0.229133
     34 H7           1.7710     0.4460    -4.0360 hn         1 66F       0.229133
     35 H8          -0.5720    -1.5460    -6.0320 h1         1 66F       0.029367
     36 H9           0.1790    -2.8080    -5.0460 h1         1 66F       0.029367
     37 H10         -1.5730    -2.8040    -5.2930 h1         1 66F       0.029367
     38 H11          1.9240    -0.0010    -0.9380 ha         1 66F       0.102000
     39 H12          1.9160    -0.0010     3.3440 ha         1 66F       0.161000
     40 H13         -0.5480     0.0030     3.3370 ha         1 66F       0.136000
     41 H14          3.9760    -0.5220     0.5140 hn         1 66F       0.185500
     42 H15          8.2570     2.0580     3.7900 ha         1 66F       0.138000
     43 H16          8.0900    -0.2700     0.1980 h4         1 66F      -0.001900
     44 H17          5.7740     1.9260     3.9090 ha         1 66F       0.144000
     45 H93          0.7770     0.0970    -5.2900 hn         1 66F       0.229133
     46 F28          9.6870     0.9450     1.8770 f          1 66F      -0.107900
@<TRIPOS>BOND
     1     1     2 1   
     2     1    13 ar  
     3     1    17 ar  
     4     2     3 1   
     5     2     4 1   
     6     2     8 1   
     7     3    28 1   
     8     3    29 1   
     9     3    30 1   
    10     4     5 1   
    11     4    31 1   
    12     4    32 1   
    13     5     6 1   
    14     5    11 2   
    15     5    12 2   
    16     6     7 1   
    17     6    10 1   
    18     7     8 2   
    19     7     9 1   
    20     9    33 1   
    21     9    34 1   
    22     9    45 1   
    23    10    35 1   
    24    10    36 1   
    25    10    37 1   
    26    13    14 ar  
    27    13    38 1   
    28    14    15 ar  
    29    14    19 1   
    30    15    16 ar  
    31    15    39 1   
    32    16    17 ar  
    33    16    40 1   
    34    17    18 1   
    35    19    26 1   
    36    19    41 1   
    37    20    21 ar  
    38    20    25 ar  
    39    20    42 1   
    40    21    22 ar  
    41    21    46 1   
    42    22    23 ar  
    43    22    43 1   
    44    23    24 ar  
    45    24    25 ar  
    46    24    26 1   
    47    25    44 1   
    48    26    27 2   
@<TRIPOS>SUBSTRUCTURE
     1 66F         1 TEMP              0 ****  ****    0 ROOT
