@<TRIPOS>MOLECULE
molecule
   24    25     1     0     0
SMALL
bcc


@<TRIPOS>ATOM
      1 C            0.0000     0.0000     0.0000 cc         1 66G       0.591600
      2 N           -0.0190    -0.1630    -2.4520 n7         1 66G      -0.764200
      3 C1           3.0620    -0.0000     1.7280 c2         1 66G       0.304700
      4 N1           1.2940     0.0000     0.0000 nd         1 66G      -0.583300
      5 CA          -0.8600    -0.0050    -1.2380 c3         1 66G       0.153200
      6 S10          4.3350    -0.0010     0.5840 sh         1 66G      -0.332400
      7 O21         -0.4690     0.0020     1.2610 os         1 66G      -0.419700
      8 O26          0.5400     0.0030     3.3250 o          1 66G      -0.525500
      9 C78         -0.9550    -0.6840    -3.4810 c3         1 66G       0.137800
     10 C79         -1.8490    -1.6880    -2.7190 c3         1 66G      -0.085400
     11 C80         -1.7850    -1.2410    -1.2450 c3         1 66G      -0.076400
     12 C83          0.5810     0.0020     2.1070 c          1 66G       0.706800
     13 CA1          1.7350     0.0000     1.2960 cd         1 66G      -0.044600
     14 OXT          3.3410     0.0010     3.0470 oh         1 66G      -0.470100
     15 HA          -1.4460     0.9030    -1.3020 h1         1 66G       0.056700
     16 HS10         4.9030     1.1980     0.5540 hs         1 66G       0.223800
     17 H78         -1.5550     0.1210    -3.8870 h1         1 66G       0.045200
     18 H78A        -0.4070    -1.1890    -4.2670 h1         1 66G       0.045200
     19 H79         -2.8670    -1.6350    -3.0840 hc         1 66G       0.054200
     20 H79A        -1.4570    -2.6930    -2.8240 hc         1 66G       0.054200
     21 H80         -1.3630    -2.0290    -0.6320 hc         1 66G       0.061200
     22 H80A        -2.7740    -0.9710    -0.8920 hc         1 66G       0.061200
     23 HXT          4.0570    -0.5880     3.2170 ho         1 66G       0.446000
     24 HN           0.3250     0.7330    -2.7380 hn         1 66G       0.359800
@<TRIPOS>BOND
     1     6     3 1
     2     4     1 2
     3     4    13 1
     4     2     5 1
     5     2     9 1
     6     5     1 1
     7     5    11 1
     8     3    13 2
     9     3    14 1
    10     1     7 1
    11    13    12 1
    12     9    10 1
    13    11    10 1
    14     7    12 1
    15    12     8 2
    16     2    24 1
    17     5    15 1
    18     6    16 1
    19     9    17 1
    20     9    18 1
    21    10    19 1
    22    10    20 1
    23    11    21 1
    24    11    22 1
    25    14    23 1
@<TRIPOS>SUBSTRUCTURE
     1 66G         1 TEMP              0 ****  ****    0 ROOT
