@<TRIPOS>MOLECULE
66G
   24    25     1     0     0
SMALL
bcc


@<TRIPOS>ATOM
      1 C            0.0000     0.0000     0.0000 cc         1 66G       0.557600
      2 N           -0.0190    -0.1630    -2.4520 n7         1 66G      -0.547200
      3 C1           3.0620    -0.0000     1.7280 c2         1 66G       0.334700
      4 N1           1.2940     0.0000     0.0000 nd         1 66G      -0.512300
      5 CA          -0.8600    -0.0050    -1.2380 c3         1 66G       0.122200
      6 S10          4.3350    -0.0010     0.5840 sh         1 66G      -0.344400
      7 O21         -0.4690     0.0020     1.2610 os         1 66G      -0.394700
      8 O26          0.5400     0.0030     3.3250 o          1 66G      -0.570500
      9 C78         -0.9550    -0.6840    -3.4810 c3         1 66G       0.140800
     10 C79         -1.8490    -1.6880    -2.7190 c3         1 66G      -0.025400
     11 C80         -1.7850    -1.2410    -1.2450 c3         1 66G      -0.023400
     12 C83          0.5810     0.0020     2.1070 c          1 66G       0.767800
     13 CA1          1.7350     0.0000     1.2960 cd         1 66G      -0.088600
     14 OXT          3.3410     0.0010     3.0470 oh         1 66G      -0.449100
     15 HA          -1.4460     0.9030    -1.3020 h1         1 66G       0.024700
     16 HS10         4.9030     1.1990     0.5540 hs         1 66G       0.202800
     17 H78         -1.5550     0.1210    -3.8870 h1         1 66G       0.012700
     18 H78A        -0.4070    -1.1890    -4.2670 h1         1 66G       0.012700
     19 H79         -1.4570    -2.6930    -2.8240 hc         1 66G       0.021200
     20 H79A        -2.8670    -1.6350    -3.0840 hc         1 66G       0.021200
     21 H80         -2.7740    -0.9710    -0.8920 hc         1 66G       0.027200
     22 H80A        -1.3630    -2.0290    -0.6320 hc         1 66G       0.027200
     23 HXT          4.0570    -0.5870     3.2170 ho         1 66G       0.424000
     24 HN           0.3250     0.7330    -2.7380 hn         1 66G       0.259800
@<TRIPOS>BOND
     1     1     4 2   
     2     1     5 1   
     3     1     7 1   
     4     2     5 1   
     5     2     9 1   
     6     2    24 1   
     7     3     6 1   
     8     3    13 2   
     9     3    14 1   
    10     4    13 1   
    11     5    11 1   
    12     5    15 1   
    13     6    16 1   
    14     7    12 1   
    15     8    12 2   
    16     9    10 1   
    17     9    17 1   
    18     9    18 1   
    19    10    11 1   
    20    10    19 1   
    21    10    20 1   
    22    11    21 1   
    23    11    22 1   
    24    12    13 1   
    25    14    23 1   
@<TRIPOS>SUBSTRUCTURE
     1 66G         1 TEMP              0 ****  ****    0 ROOT
