@<TRIPOS>MOLECULE
molecule
   43    45     1     0     0
SMALL
bcc


@<TRIPOS>ATOM
      1 C1           0.0000     0.0000     0.0000 ca         1 66J      -0.158300
      2 C11         -4.5040    -1.4320    -5.8920 c2         1 66J       0.794100
      3 C14         -3.5090     1.2470    -5.0050 c3         1 66J      -0.087100
      4 C21         -0.1980    -0.0000    -2.5030 cc         1 66J      -0.158000
      5 C20         -0.7510     0.0010    -1.2750 cd         1 66J       0.051900
      6 C22         -1.1040     0.0000    -3.5440 cc         1 66J       0.014400
      7 C26          5.9980     0.0990     1.6260 c3         1 66J      -0.033000
      8 C13         -3.5620    -0.0000    -4.1210 c3         1 66J       0.247500
      9 C2           1.3970     0.0000     0.0000 ca         1 66J      -0.065000
     10 C4           1.3000    -0.0000     2.4050 ca         1 66J       0.441200
     11 C6          -0.6780     0.0060     1.2210 ca         1 66J       0.429200
     12 C7          -2.3890     0.0000    -3.1750 cd         1 66J      -0.067400
     13 C8          -4.8690    -0.0040    -3.3160 c3         1 66J      -0.267600
     14 C3           2.0560     0.0000     1.2320 ca         1 66J      -0.085300
     15 N5          -0.0170     0.0060     2.3610 nb         1 66J      -0.662000
     16 S9          -6.2610    -0.1160    -4.4910 s6         1 66J       1.327900
     17 N10         -5.8190    -1.4040    -5.4510 nh         1 66J      -0.750500
     18 N12         -3.5100    -1.2000    -4.9630 nu         1 66J      -0.917200
     19 O16         -6.2750     1.0030    -5.3650 o          1 66J      -0.607800
     20 O18         -7.4420    -0.5540    -3.8330 o          1 66J      -0.607800
     21 S19         -2.5040     0.0000    -1.4200 ss         1 66J      -0.086800
     22 Cl23        -0.6120     0.0000    -5.2080 cl         1 66J      -0.062400
     23 C25          4.6600    -0.0140     1.3160 c1         1 66J      -0.082100
     24 H1          -2.4340     1.3710    -5.0500 hc         1 66J       0.074700
     25 H2          -4.0720     0.9810    -5.8910 hc         1 66J       0.074700
     26 H3          -3.8250     1.8360    -4.1520 hc         1 66J       0.074700
     27 H4          -7.6230    -2.7300    -5.2000 h1         1 66J       0.052367
     28 H5          -7.3090    -2.1000    -6.6840 h1         1 66J       0.052367
     29 H6          -6.2730    -3.3620    -6.1360 h1         1 66J       0.052367
     30 H7           0.7720    -0.2370    -2.9240 ha         1 66J       0.172000
     31 H8           6.1780    -0.7480     2.2780 hc         1 66J       0.064367
     32 H9           6.6470     0.2990     0.7810 hc         1 66J       0.064367
     33 H10          6.1230     1.0150     2.1900 hc         1 66J       0.064367
     34 H11          1.8070     0.1370    -0.9930 ha         1 66J       0.153000
     35 H12          1.9920    -0.1600     3.2230 h4         1 66J       0.041100
     36 H13         -1.6260    -0.5130     1.1430 h4         1 66J       0.029100
     37 H14         -4.8670     0.8650    -2.6690 h1         1 66J       0.109700
     38 H15         -4.9660    -0.8470    -2.6430 h1         1 66J       0.109700
     39 H16         -3.0950    -1.7120    -4.2100 hn         1 66J       0.440800
     40 H17         -3.2220    -1.5550    -7.1560 hn         1 66J       0.397400
     41 N15         -4.2160    -1.6730    -7.1400 n2         1 66J      -0.709100
     42 C17         -6.7730    -2.4570    -5.8130 c3         1 66J       0.224100
     43 C24          3.4870    -0.0070     1.2900 cg         1 66J      -0.150000
@<TRIPOS>BOND
     1    15    11 ar  
     2    15    10 ar  
     3    11     1 ar  
     4    22     6 1   
     5     4     6 1   
     6     4     5 2   
     7     6    12 2   
     8    10    14 ar  
     9     1     5 1   
    10     1     9 ar  
    11     5    21 1   
    12     3     8 1   
    13    12    21 1   
    14    12     8 1   
    15    14     9 ar  
    16    14    43 1   
    17     8    13 1   
    18     8    18 1   
    19    43    23 3   
    20    13    16 1   
    21    20    16 2   
    22    18     2 1   
    23    23     7 1   
    24    16    17 1   
    25    16    19 2   
    26     2    17 1   
    27     2    41 2   
    28    17    42 1   
    29     3    24 1   
    30     3    25 1   
    31     3    26 1   
    32    42    27 1   
    33    42    28 1   
    34    42    29 1   
    35     4    30 1   
    36     7    31 1   
    37     7    32 1   
    38     7    33 1   
    39     9    34 1   
    40    10    35 1   
    41    11    36 1   
    42    13    37 1   
    43    13    38 1   
    44    18    39 1   
    45    41    40 1   
@<TRIPOS>SUBSTRUCTURE
     1 66J         1 TEMP              0 ****  ****    0 ROOT
