@<TRIPOS>MOLECULE
molecule
   79    83     1     0     0
SMALL
bcc


@<TRIPOS>ATOM
      1 CAX          0.0000     0.0000     0.0000 c3         1 66K       0.162800
      2 CAV          1.5300     0.0000     0.0000 c3         1 66K       0.164300
      3 NBN          2.0170     0.0000     1.3860 n3         1 66K      -0.736600
      4 CAB          3.4830     0.0760     1.4300 c3         1 66K       0.153100
      5 CAW          1.5290    -1.1810     2.1130 c3         1 66K       0.164300
      6 CAY         -0.0010    -1.1810     2.1120 c3         1 66K       0.162800
      7 NBO         -0.4880    -1.1810     0.7260 n3         1 66K      -0.720600
      8 CAZ         -1.9540    -1.2570     0.6820 c3         1 66K       0.184100
      9 CBJ         -2.4030    -1.5020    -0.7350 ca         1 66K      -0.006300
     10 CBL         -2.3600    -2.7810    -1.2610 ca         1 66K      -0.170300
     11 CBQ         -1.8640    -3.9250    -0.4130 c3         1 66K       0.676200
     12 FAF         -2.6740    -4.0510     0.7190 f          1 66K      -0.216967
     13 FAG         -1.9120    -5.1100    -1.1560 f          1 66K      -0.216967
     14 FAE         -0.5450    -3.6760    -0.0190 f          1 66K      -0.216967
     15 CAQ         -2.7690    -3.0120    -2.5570 ca         1 66K      -0.023000
     16 CAN         -2.8610    -0.4470    -1.5050 ca         1 66K      -0.142000
     17 CAM         -3.2740    -0.6640    -2.8030 ca         1 66K      -0.083000
     18 CBI         -3.2280    -1.9510    -3.3400 ca         1 66K      -0.156600
     19 CBD         -3.6680    -2.1910    -4.7310 c          1 66K       0.675700
     20 OAC         -3.6310    -3.3140    -5.1950 o          1 66K      -0.581100
     21 NBB         -4.1100    -1.1650    -5.4850 ns         1 66K      -0.475100
     22 CBG         -4.4230    -1.3710    -6.8320 ca         1 66K       0.086600
     23 CAP         -5.4560    -0.6560    -7.4230 ca         1 66K      -0.259000
     24 CAL         -3.6960    -2.2860    -7.5830 ca         1 66K      -0.159000
     25 CAK         -4.0050    -2.4890    -8.9140 ca         1 66K      -0.076000
     26 CBF         -5.0360    -1.7830    -9.5030 ca         1 66K      -0.123300
     27 CAA         -5.3700    -2.0070   -10.9540 c3         1 66K      -0.034800
     28 CBK         -5.7630    -0.8630    -8.7580 ca         1 66K       0.156100
     29 OBC         -6.7740    -0.1650    -9.3390 os         1 66K      -0.318900
     30 CBM         -7.4510     0.7960    -8.5260 c3         1 66K       0.142100
     31 CAS         -8.8550     1.0370    -9.0840 c3         1 66K      -0.111400
     32 CAU         -9.5900     2.0410    -8.1900 c3         1 66K       0.097000
     33 CAR         -6.6670     2.1090    -8.5280 c3         1 66K      -0.111400
     34 CAT         -7.3760     3.1250    -7.6270 c3         1 66K       0.097000
     35 NBP         -8.7720     3.2550    -8.0690 n          1 66K      -0.489800
     36 CBE         -9.2910     4.4650    -8.3590 c          1 66K       0.681700
     37 OAD        -10.4650     4.5670    -8.6530 o          1 66K      -0.596100
     38 CBH         -8.4310     5.6660    -8.3190 ca         1 66K      -0.268900
     39 CAJ         -7.4870     5.8330    -7.2990 ca         1 66K      -0.083000
     40 CAH         -6.7070     6.9750    -7.3060 ca         1 66K      -0.265300
     41 CAI         -6.8830     7.9080    -8.3130 ca         1 66K       0.439200
     42 NBA         -7.7800     7.7250    -9.2630 nb         1 66K      -0.690000
     43 CAO         -8.5430     6.6520    -9.3010 ca         1 66K       0.474200
     44 H1          -0.3600     0.8970     0.4890 h1         1 66K       0.041200
     45 H2          -0.3600    -0.0310    -1.0210 h1         1 66K       0.041200
     46 H3           1.8910    -0.8860    -0.5080 h1         1 66K       0.043950
     47 H4           1.8910     0.8860    -0.5080 h1         1 66K       0.043950
     48 H6           3.8130     0.1080     2.4620 h1         1 66K       0.032700
     49 H7           3.9050    -0.7960     0.9440 h1         1 66K       0.032700
     50 H8           3.8140     0.9710     0.9170 h1         1 66K       0.032700
     51 H9           1.8890    -2.0790     1.6250 h1         1 66K       0.043950
     52 H10          1.8880    -1.1500     3.1340 h1         1 66K       0.043950
     53 H11         -0.3610    -0.2950     2.6210 h1         1 66K       0.041200
     54 H12         -0.3610    -2.0670     2.6210 h1         1 66K       0.041200
     55 H14         -2.2920    -2.0710     1.3130 h1         1 66K       0.055200
     56 H15         -2.3750    -0.3250     1.0380 h1         1 66K       0.055200
     57 H16         -2.7330    -4.0130    -2.9680 ha         1 66K       0.178000
     58 H17         -2.8970     0.5520    -1.0860 ha         1 66K       0.142000
     59 H18         -3.6310     0.1630    -3.4050 ha         1 66K       0.128000
     60 H19         -4.2060    -0.2540    -5.0820 hn         1 66K       0.321500
     61 H20         -6.0220     0.0620    -6.8410 ha         1 66K       0.134000
     62 H21         -2.8870    -2.8410    -7.1240 ha         1 66K       0.161000
     63 H22         -3.4370    -3.2030    -9.4980 ha         1 66K       0.141000
     64 H23         -5.2020    -1.0910   -11.5090 hc         1 66K       0.044367
     65 H24         -6.4100    -2.2980   -11.0450 hc         1 66K       0.044367
     66 H25         -4.7390    -2.7920   -11.3530 hc         1 66K       0.044367
     67 H26         -7.5280     0.4250    -7.5100 h1         1 66K       0.049700
     68 H27         -9.4020     0.1020    -9.1010 hc         1 66K       0.065950
     69 H28         -8.7800     1.4370   -10.0880 hc         1 66K       0.065950
     70 H29         -9.7430     1.6080    -7.2090 h1         1 66K       0.063200
     71 H30        -10.5450     2.2910    -8.6360 h1         1 66K       0.063200
     72 H31         -5.6660     1.9320    -8.1520 hc         1 66K       0.065950
     73 H32         -6.6160     2.4970    -9.5380 hc         1 66K       0.065950
     74 H33         -6.8810     4.0860    -7.7050 h1         1 66K       0.063200
     75 H34         -7.3520     2.7790    -6.6010 h1         1 66K       0.063200
     76 H35         -7.3710     5.0860    -6.5220 ha         1 66K       0.146000
     77 H36         -5.9670     7.1380    -6.5330 ha         1 66K       0.141000
     78 H37         -6.2750     8.8050    -8.3200 h4         1 66K       0.027100
     79 H38         -9.2690     6.5370   -10.0970 h4         1 66K       0.045100
@<TRIPOS>BOND
     1    42    43 ar  
     2    42    41 ar  
     3    37    36 2   
     4    43    38 ar  
     5    41    40 ar  
     6    38    36 1   
     7    38    39 ar  
     8    36    35 1   
     9    40    39 ar  
    10    35    32 1   
    11    35    34 1   
    12    32    31 1   
    13    31    30 1   
    14    34    33 1   
    15    12    11 1   
    16    33    30 1   
    17    30    29 1   
    18    14    11 1   
    19    11    13 1   
    20    11    10 1   
    21    29    28 1   
    22    20    19 2   
    23    15    10 ar  
    24    15    18 ar  
    25    28    23 ar  
    26    28    26 ar  
    27    27    26 1   
    28    10     9 ar  
    29    23    22 ar  
    30    26    25 ar  
    31    19    18 1   
    32    19    21 1   
    33    18    17 ar  
    34    22    21 1   
    35    22    24 ar  
    36    25    24 ar  
    37     9     8 1   
    38     9    16 ar  
    39     8     7 1   
    40    17    16 ar  
    41     7     6 1   
    42     7     1 1   
    43     6     5 1   
    44     1     2 1   
    45     5     3 1   
    46     2     3 1   
    47     3     4 1   
    48     1    44 1   
    49     1    45 1   
    50     2    46 1   
    51     2    47 1   
    52     4    48 1   
    53     4    49 1   
    54     4    50 1   
    55     5    51 1   
    56     5    52 1   
    57     6    53 1   
    58     6    54 1   
    59     8    55 1   
    60     8    56 1   
    61    15    57 1   
    62    16    58 1   
    63    17    59 1   
    64    21    60 1   
    65    23    61 1   
    66    24    62 1   
    67    25    63 1   
    68    27    64 1   
    69    27    65 1   
    70    27    66 1   
    71    30    67 1   
    72    31    68 1   
    73    31    69 1   
    74    32    70 1   
    75    32    71 1   
    76    33    72 1   
    77    33    73 1   
    78    34    74 1   
    79    34    75 1   
    80    39    76 1   
    81    40    77 1   
    82    41    78 1   
    83    43    79 1   
@<TRIPOS>SUBSTRUCTURE
     1 66K         1 TEMP              0 ****  ****    0 ROOT
