@<TRIPOS>MOLECULE
molecule
   72    77     1     0     0
SMALL
bcc


@<TRIPOS>ATOM
      1 CAS          0.0000     0.0000     0.0000 c3         1 66L       0.121800
      2 CAP          1.5310     0.0000     0.0000 c3         1 66L       0.139900
      3 OBB          2.0030     0.0000     1.3510 os         1 66L      -0.426600
      4 CAQ          1.5500     1.1180     2.1190 c3         1 66L       0.139900
      5 CAT          0.0190     1.1290     2.1400 c3         1 66L       0.121800
      6 NBP         -0.4850     1.1620     0.7600 n3         1 66L      -0.719600
      7 CAU         -1.9530     1.2300     0.7360 c3         1 66L       0.157800
      8 CAR         -2.4060     2.6190     1.1900 c3         1 66L       0.150400
      9 OBC         -2.0150     3.5890     0.2160 os         1 66L      -0.422100
     10 CBK         -2.3430     4.8820     0.4680 ca         1 66L       0.668600
     11 CAO         -1.9880     5.8550    -0.4410 ca         1 66L      -0.329600
     12 NAX         -3.0030     5.1770     1.5830 nb         1 66L      -0.779000
     13 CAM         -3.3530     6.4060     1.8920 ca         1 66L       0.513200
     14 CBO         -3.0330     7.4640     1.0340 ca         1 66L      -0.338600
     15 CBN         -2.3330     7.1890    -0.1700 ca         1 66L       0.500600
     16 NAY         -2.0220     8.1820    -1.0060 nb         1 66L      -0.716000
     17 CAE         -2.3490     9.4270    -0.7430 ca         1 66L       0.493200
     18 CAF         -3.0320     9.7780     0.4120 ca         1 66L      -0.370300
     19 CBM         -3.3900     8.7990     1.3260 ca         1 66L       0.207100
     20 OBD         -4.0620     9.1120     2.4590 os         1 66L      -0.230200
     21 CBL         -4.4670    10.3990     2.6270 ca         1 66L       0.042100
     22 CBJ         -5.6440    10.8390     2.0350 ca         1 66L       0.145900
     23 FAD         -6.3870     9.9890     1.2930 f          1 66L      -0.120900
     24 CAN         -6.0560    12.1480     2.2050 ca         1 66L      -0.190000
     25 CAL         -3.7090    11.2690     3.3940 ca         1 66L      -0.090000
     26 CAK         -4.1190    12.5770     3.5650 ca         1 66L      -0.131000
     27 CBI         -5.2920    13.0210     2.9690 ca         1 66L       0.084600
     28 NBA         -5.7070    14.3480     3.1420 ns         1 66L      -0.483100
     29 CBF         -4.8060    15.3480     3.0910 c          1 66L       0.700100
     30 OAB         -3.6470    15.1080     2.8280 o          1 66L      -0.568100
     31 CBQ         -5.2390    16.7670     3.3610 cx         1 66L      -0.323000
     32 CAV         -4.1460    17.7910     3.6740 cx         1 66L      -0.080400
     33 CAW         -5.0730    17.2970     4.7870 cx         1 66L      -0.080400
     34 CBE         -6.4340    17.2420     2.5760 c          1 66L       0.695100
     35 OAA         -6.3440    18.2240     1.8710 o          1 66L      -0.564100
     36 NAZ         -7.6020    16.5750     2.6580 ns         1 66L      -0.482100
     37 CBH         -8.6900    16.9690     1.8690 ca         1 66L       0.031600
     38 CAI         -9.9700    16.9840     2.4070 ca         1 66L      -0.113000
     39 CAG        -11.0420    17.3740     1.6280 ca         1 66L      -0.150000
     40 CBG        -10.8400    17.7490     0.3100 ca         1 66L       0.125900
     41 FAC        -11.8890    18.1300    -0.4510 f          1 66L      -0.137900
     42 CAH         -9.5650    17.7350    -0.2290 ca         1 66L      -0.150000
     43 CAJ         -8.4900    17.3510     0.5490 ca         1 66L      -0.113000
     44 H1          -0.3610    -0.9100     0.4640 h1         1 66L       0.042450
     45 H2          -0.3600     0.0600    -1.0200 h1         1 66L       0.042450
     46 H3           1.8920    -0.8860    -0.5080 h1         1 66L       0.054700
     47 H4           1.8920     0.8860    -0.5080 h1         1 66L       0.054700
     48 H5           1.9240     1.0340     3.1320 h1         1 66L       0.054700
     49 H6           1.9100     2.0350     1.6690 h1         1 66L       0.054700
     50 H7          -0.3280     2.0060     2.6720 h1         1 66L       0.042450
     51 H8          -0.3410     0.2340     2.6340 h1         1 66L       0.042450
     52 H10         -2.3070     1.0460    -0.2710 h1         1 66L       0.048200
     53 H11         -2.3600     0.4810     1.4050 h1         1 66L       0.048200
     54 H12         -1.9450     2.8570     2.1410 h1         1 66L       0.048700
     55 H13         -3.4830     2.6300     1.2980 h1         1 66L       0.048700
     56 H14         -1.6460     5.5730    -1.4300 ha         1 66L       0.171000
     57 H15         -3.8900     6.6000     2.8120 h4         1 66L       0.038100
     58 H16         -2.0760    10.2020    -1.4490 h4         1 66L       0.027100
     59 H17         -3.2870    10.8140     0.5990 ha         1 66L       0.151000
     60 H18         -6.9720    12.4920     1.7420 ha         1 66L       0.156000
     61 H19         -2.7930    10.9240     3.8590 ha         1 66L       0.160000
     62 H20         -3.5240    13.2580     4.1620 ha         1 66L       0.164000
     63 H21         -6.6660    14.5490     3.3480 hn         1 66L       0.323500
     64 H22         -3.1350    17.4030     3.7010 hc         1 66L       0.096200
     65 H23         -4.3340    18.7980     3.3210 hc         1 66L       0.096200
     66 H24         -4.6290    16.6070     5.4930 hc         1 66L       0.096200
     67 H25         -5.8280    18.0020     5.1140 hc         1 66L       0.096200
     68 H26         -7.7080    15.8320     3.3200 hn         1 66L       0.315500
     69 H27        -10.1280    16.6900     3.4380 ha         1 66L       0.148500
     70 H28        -12.0400    17.3860     2.0470 ha         1 66L       0.151000
     71 H29         -9.4090    18.0310    -1.2590 ha         1 66L       0.151000
     72 H30         -7.4920    17.3400     0.1270 ha         1 66L       0.148500
@<TRIPOS>BOND
     1    23    22 1   
     2     7     8 1   
     3     7     6 1   
     4     5     6 1   
     5     5     4 1   
     6    22    24 ar  
     7    22    21 ar  
     8     8     9 1   
     9    12    13 ar  
    10    12    10 ar  
    11    13    14 ar  
    12     9    10 1   
    13    20    19 1   
    14    20    21 1   
    15    10    11 ar  
    16     6     1 1   
    17    24    27 ar  
    18    14    19 ar  
    19    14    15 ar  
    20    19    18 ar  
    21    11    15 ar  
    22    15    16 ar  
    23    18    17 ar  
    24    30    29 2   
    25     4     3 1   
    26    16    17 ar  
    27    21    25 ar  
    28     1     2 1   
    29    33    32 1   
    30    33    31 1   
    31    29    28 1   
    32    29    31 1   
    33    27    28 1   
    34    27    26 ar  
    35     3     2 1   
    36    32    31 1   
    37    25    26 ar  
    38    31    34 1   
    39    34    35 2   
    40    34    36 1   
    41    36    37 1   
    42    37    38 ar  
    43    37    43 ar  
    44    38    39 ar  
    45    43    42 ar  
    46    39    40 ar  
    47    42    40 ar  
    48    40    41 1   
    49     1    44 1   
    50     1    45 1   
    51     2    46 1   
    52     2    47 1   
    53     4    48 1   
    54     4    49 1   
    55     5    50 1   
    56     5    51 1   
    57     7    52 1   
    58     7    53 1   
    59     8    54 1   
    60     8    55 1   
    61    11    56 1   
    62    13    57 1   
    63    17    58 1   
    64    18    59 1   
    65    24    60 1   
    66    25    61 1   
    67    26    62 1   
    68    28    63 1   
    69    32    64 1   
    70    32    65 1   
    71    33    66 1   
    72    33    67 1   
    73    36    68 1   
    74    38    69 1   
    75    39    70 1   
    76    42    71 1   
    77    43    72 1   
@<TRIPOS>SUBSTRUCTURE
     1 66L         1 TEMP              0 ****  ****    0 ROOT
