@<TRIPOS>MOLECULE
molecule
   61    63     1     0     0
SMALL
bcc


@<TRIPOS>ATOM
      1 N1           0.0000     0.0000     0.0000 nb         1 66M      -0.785000
      2 C2           1.2510    -0.0010    -2.4100 ca         1 66M       0.784200
      3 N3           2.2980     0.0000     0.9710 na         1 66M      -0.249000
      4 C4           3.5070     0.0010     0.3420 cc         1 66M       0.444700
      5 C5           2.0740     0.0010     2.4180 c3         1 66M       0.245800
      6 C6           1.9460    -1.4460     2.9430 c3         1 66M       0.068100
      7 C8           3.1230     0.0530     4.4600 c3         1 66M       0.024100
      8 C11          5.7530    -0.6930     8.5350 c3         1 66M      -0.100400
      9 C12          7.1180    -0.6390     9.2250 c3         1 66M      -0.083400
     10 C14          8.3430    -1.0590    11.3610 c3         1 66M      -0.162400
     11 C15          8.2050    -1.5300    12.7860 c          1 66M       0.668100
     12 C16          9.1510    -2.0220    14.9770 c3         1 66M       0.026700
     13 C17         10.2710    -1.4150    15.8250 c3         1 66M      -0.176400
     14 C18         10.1040     0.0820    15.8800 c          1 66M       0.883600
     15 C7           2.6520    -1.4120     4.3170 c3         1 66M       0.102100
     16 N2           1.8670    -0.0000    -3.6490 nv         1 66M      -0.988500
     17 C9           4.4670     0.1070     5.1400 c          1 66M       0.655100
     18 C10          5.8930    -0.2170     7.0880 c3         1 66M       0.107000
     19 C13          6.9780    -1.1150    10.6720 c3         1 66M      -0.061400
     20 N4           3.3370     0.0000    -0.9480 nd         1 66M      -0.597100
     21 O14          7.1230    -1.8740    13.2090 o          1 66M      -0.655100
     22 N5           4.5870    -0.2690     6.4280 ns         1 66M      -0.571900
     23 O1           5.4410     0.4890     4.5270 o          1 66M      -0.586100
     24 O            3.2240     0.5410     3.1050 os         1 66M      -0.374600
     25 O15          1.7330    -1.7460     5.3600 oh         1 66M      -0.575800
     26 O16          0.5700    -1.8030     3.0960 oh         1 66M      -0.579800
     27 C1           2.0110    -0.0000    -1.2280 ca         1 66M      -0.208200
     28 C            1.3290     0.0000     0.0000 ca         1 66M       0.473800
     29 C3          -0.6720    -0.0010    -1.1320 ca         1 66M       0.733900
     30 N           -0.0740    -0.0010    -2.3100 nb         1 66M      -0.842000
     31 N6           9.2860    -1.5660    13.5920 ns         1 66M      -0.495900
     32 C52          9.2470    -3.5260    15.0220 c          1 66M       0.887600
     33 O13          9.1500    -4.1700    16.1960 o          1 66M      -0.875300
     34 O12          9.4090    -4.1510    14.0020 o          1 66M      -0.875300
     35 O11          9.1840     0.6090    15.3010 o          1 66M      -0.879800
     36 H1           4.4670     0.0010     0.8420 h5         1 66M       0.101800
     37 H2           1.1860     0.5700     2.6680 h2         1 66M       0.102700
     38 H3           2.4510    -2.1350     2.2770 h1         1 66M       0.065700
     39 H4           2.3910     0.6300     5.0130 h1         1 66M       0.068700
     40 H5           5.0570    -0.0520     9.0610 hc         1 66M       0.047700
     41 H6           5.3840    -1.7120     8.5460 hc         1 66M       0.047700
     42 H7           7.8150    -1.2810     8.7000 hc         1 66M       0.037200
     43 H8           7.4880     0.3800     9.2140 hc         1 66M       0.037200
     44 H9           9.0400    -1.7000    10.8350 hc         1 66M       0.044700
     45 H10          8.7110    -0.0400    11.3510 hc         1 66M       0.044700
     46 H11          8.1910    -1.7090    15.3690 h1         1 66M       0.084700
     47 H12         11.2300    -1.6550    15.3810 hc         1 66M       0.043200
     48 H13         10.2250    -1.8210    16.8280 hc         1 66M       0.043200
     49 H15          3.5020    -2.0830     4.3220 h1         1 66M       0.109700
     50 H16          1.3170    -0.0770    -4.4820 hn         1 66M       0.447800
     51 H17          2.8620     0.0900    -3.7140 hn         1 66M       0.447800
     52 H18          6.5900    -0.8580     6.5630 h1         1 66M       0.054200
     53 H19          6.2620     0.8020     7.0780 h1         1 66M       0.054200
     54 H20          6.6090    -2.1330    10.6830 hc         1 66M       0.056700
     55 H21          6.2820    -0.4730    11.1980 hc         1 66M       0.056700
     56 H22          3.7780    -0.5570     6.9420 hn         1 66M       0.320500
     57 H23          1.1720    -1.0080     5.5330 ho         1 66M       0.412000
     58 H24          0.4470    -2.7000     2.8320 ho         1 66M       0.418000
     59 H25         -1.7540    -0.0010    -1.0960 h5         1 66M       0.058100
     60 H26         10.1870    -1.3250    13.2300 hn         1 66M       0.292500
     61 O2          10.9770     0.8300    16.5730 o          1 66M      -0.879800
@<TRIPOS>BOND
     1    29     1 ar  
     2    29    30 ar  
     3     1    28 ar  
     4    26     6 1   
     5    30     2 ar  
     6     6     5 1   
     7     6    15 1   
     8    28    27 ar  
     9    28     3 1   
    10    25    15 1   
    11     2    16 1   
    12     2    27 ar  
    13     5     3 1   
    14     5    24 1   
    15    15     7 1   
    16    27    20 1   
    17     3     4 1   
    18    24     7 1   
    19     7    17 1   
    20     4    20 2   
    21    17    23 2   
    22    17    22 1   
    23    22    18 1   
    24    18     8 1   
    25     8     9 1   
    26     9    19 1   
    27    34    32 1   
    28    33    32 1   
    29    19    10 1   
    30    32    12 1   
    31    10    11 1   
    32    31    12 1   
    33    31    11 1   
    34    12    13 1   
    35    11    21 2   
    36    13    14 1   
    37    14    35 1   
    38     4    36 1   
    39     5    37 1   
    40     6    38 1   
    41     7    39 1   
    42     8    40 1   
    43     8    41 1   
    44     9    42 1   
    45     9    43 1   
    46    10    44 1   
    47    10    45 1   
    48    12    46 1   
    49    13    47 1   
    50    13    48 1   
    51    15    49 1   
    52    16    50 1   
    53    16    51 1   
    54    18    52 1   
    55    18    53 1   
    56    19    54 1   
    57    19    55 1   
    58    22    56 1   
    59    25    57 1   
    60    26    58 1   
    61    29    59 1   
    62    31    60 1   
    63    14    61 1   
@<TRIPOS>SUBSTRUCTURE
     1 66M         1 TEMP              0 ****  ****    0 ROOT
