@<TRIPOS>MOLECULE
66M
   61    63     1     0     0
SMALL
bcc


@<TRIPOS>ATOM
      1 N1           0.0000     0.0000     0.0000 nb         1 66M      -0.671000
      2 C2           1.2510    -0.0010    -2.4100 ca         1 66M       0.589200
      3 N3           2.2980     0.0000     0.9710 na         1 66M       0.213000
      4 C4           3.5070     0.0010     0.3420 cc         1 66M       0.265700
      5 C5           2.0740     0.0010     2.4180 c3         1 66M       0.135800
      6 C6           1.9460    -1.4460     2.9430 c3         1 66M       0.108100
      7 C8           3.1230     0.0530     4.4600 c3         1 66M       0.070100
      8 C11          5.7530    -0.6930     8.5350 c3         1 66M      -0.042400
      9 C12          7.1180    -0.6390     9.2250 c3         1 66M      -0.029400
     10 C14          8.3430    -1.0590    11.3610 c3         1 66M      -0.105400
     11 C15          8.2050    -1.5300    12.7860 c          1 66M       0.563100
     12 C16          9.1510    -2.0220    14.9770 c3         1 66M      -0.087300
     13 C17         10.2710    -1.4150    15.8250 c3         1 66M      -0.127400
     14 C18         10.1040     0.0820    15.8800 c          1 66M       0.975600
     15 C7           2.6520    -1.4120     4.3170 c3         1 66M       0.140100
     16 N2           1.8670    -0.0000    -3.6490 nv         1 66M      -0.489500
     17 C9           4.4670     0.1070     5.1400 c          1 66M       0.556100
     18 C10          5.8930    -0.2170     7.0880 c3         1 66M       0.042000
     19 C13          6.9780    -1.1150    10.6720 c3         1 66M      -0.013400
     20 N4           3.3370     0.0000    -0.9480 nd         1 66M      -0.507100
     21 O14          7.1230    -1.8740    13.2090 o          1 66M      -0.704100
     22 N5           4.5870    -0.2690     6.4280 ns         1 66M      -0.173900
     23 O1           5.4410     0.4890     4.5270 o          1 66M      -0.632100
     24 O            3.2240     0.5410     3.1050 os         1 66M      -0.354600
     25 O15          1.7330    -1.7460     5.3600 oh         1 66M      -0.563800
     26 O16          0.5700    -1.8030     3.0960 oh         1 66M      -0.558800
     27 C1           2.0110    -0.0000    -1.2280 ca         1 66M      -0.240200
     28 C            1.3290     0.0000     0.0000 ca         1 66M       0.267800
     29 C3          -0.6720    -0.0010    -1.1320 ca         1 66M       0.682900
     30 N           -0.0740    -0.0010    -2.3100 nb         1 66M      -0.751000
     31 N6           9.2860    -1.5660    13.5920 ns         1 66M      -0.056900
     32 C52          9.2470    -3.5260    15.0220 c          1 66M       0.983600
     33 O13          9.1500    -4.1700    16.1960 o          1 66M      -0.923800
     34 O12          9.4090    -4.1510    14.0020 o          1 66M      -0.923800
     35 O11          9.1840     0.6090    15.3010 o          1 66M      -0.928800
     36 H1           4.4670     0.0010     0.8420 h5         1 66M       0.052800
     37 H2           1.1860     0.5700     2.6680 h2         1 66M       0.062700
     38 H3           2.4510    -2.1350     2.2770 h1         1 66M       0.027700
     39 H4           2.3910     0.6300     5.0130 h1         1 66M       0.033700
     40 H5           5.0570    -0.0520     9.0610 hc         1 66M       0.018700
     41 H6           5.3840    -1.7120     8.5460 hc         1 66M       0.018700
     42 H7           7.8150    -1.2810     8.7000 hc         1 66M       0.010700
     43 H8           7.4880     0.3800     9.2140 hc         1 66M       0.010700
     44 H9           9.0400    -1.7000    10.8350 hc         1 66M       0.014700
     45 H10          8.7110    -0.0400    11.3510 hc         1 66M       0.014700
     46 H11          8.1910    -1.7090    15.3690 h1         1 66M       0.069700
     47 H12         11.2300    -1.6550    15.3810 hc         1 66M       0.020700
     48 H13         10.2250    -1.8210    16.8280 hc         1 66M       0.020700
     49 H15          3.5020    -2.0830     4.3220 h1         1 66M       0.063700
     50 H16          1.3170    -0.0770    -4.4820 hn         1 66M       0.274300
     51 H17          2.8620     0.0900    -3.7140 hn         1 66M       0.274300
     52 H18          6.5900    -0.8580     6.5630 h1         1 66M       0.027700
     53 H19          6.2620     0.8020     7.0780 h1         1 66M       0.027700
     54 H20          6.6090    -2.1330    10.6830 hc         1 66M       0.029200
     55 H21          6.2820    -0.4730    11.1980 hc         1 66M       0.029200
     56 H22          3.7780    -0.5570     6.9420 hn         1 66M       0.179500
     57 H23          1.1720    -1.0080     5.5330 ho         1 66M       0.401000
     58 H24          0.4470    -2.7000     2.8320 ho         1 66M       0.403000
     59 H25         -1.7540    -0.0010    -1.0960 h5         1 66M      -0.007900
     60 H26         10.1870    -1.3250    13.2300 hn         1 66M       0.142500
     61 O2          10.9770     0.8300    16.5730 o          1 66M      -0.928800
@<TRIPOS>BOND
     1     1    28 ar  
     2     1    29 ar  
     3     2    16 1   
     4     2    27 ar  
     5     2    30 ar  
     6     3     4 1   
     7     3     5 1   
     8     3    28 1   
     9     4    20 2   
    10     4    36 1   
    11     5     6 1   
    12     5    24 1   
    13     5    37 1   
    14     6    15 1   
    15     6    26 1   
    16     6    38 1   
    17     7    15 1   
    18     7    17 1   
    19     7    24 1   
    20     7    39 1   
    21     8     9 1   
    22     8    18 1   
    23     8    40 1   
    24     8    41 1   
    25     9    19 1   
    26     9    42 1   
    27     9    43 1   
    28    10    11 1   
    29    10    19 1   
    30    10    44 1   
    31    10    45 1   
    32    11    21 2   
    33    11    31 1   
    34    12    13 1   
    35    12    31 1   
    36    12    32 1   
    37    12    46 1   
    38    13    14 1   
    39    13    47 1   
    40    13    48 1   
    41    14    35 1   
    42    14    61 1   
    43    15    25 1   
    44    15    49 1   
    45    16    50 1   
    46    16    51 1   
    47    17    22 1   
    48    17    23 2   
    49    18    22 1   
    50    18    52 1   
    51    18    53 1   
    52    19    54 1   
    53    19    55 1   
    54    20    27 1   
    55    22    56 1   
    56    25    57 1   
    57    26    58 1   
    58    27    28 ar  
    59    29    30 ar  
    60    29    59 1   
    61    31    60 1   
    62    32    33 1   
    63    32    34 1   
@<TRIPOS>SUBSTRUCTURE
     1 66M         1 TEMP              0 ****  ****    0 ROOT
