@<TRIPOS>MOLECULE
66N
   16    15     1     0     0
SMALL
bcc


@<TRIPOS>ATOM
      1 O3           0.0000     0.0000     0.0000 o          1 66N      -0.364100
      2 N11          1.0140     0.0010     2.4210 nz         1 66N       0.097400
      3 C33          1.9670     0.0000     1.3040 c3         1 66N      -0.146500
      4 C35          2.8460    -1.2490     1.3860 c3         1 66N      -0.009100
      5 C34          1.2130     0.0000     0.0000 c          1 66N       0.323100
      6 N12          1.8860    -0.0010    -1.1680 nz         1 66N       0.221600
      7 H1           0.4570    -0.8300     2.3850 hn         1 66N       0.251467
      8 H2           1.5150     0.0290     3.2870 hn         1 66N       0.251467
      9 H4           2.5900     0.8840     1.3600 hx         1 66N       0.125700
     10 H5           3.1870    -1.3850     2.4050 hc         1 66N       0.062367
     11 H6           3.7020    -1.1320     0.7310 hc         1 66N       0.062367
     12 H7           2.2730    -2.1150     1.0780 hc         1 66N       0.062367
     13 H8           2.0620    -0.9440    -1.4510 hn         1 66N       0.270133
     14 H9           1.3400     0.4610    -1.8680 hn         1 66N       0.270133
     15 H113         0.4300     0.8120     2.3610 hn         1 66N       0.251467
     16 H123         2.7140     0.5540    -1.0760 hn         1 66N       0.270133
@<TRIPOS>BOND
     1     1     5 2   
     2     2     3 1   
     3     2     7 1   
     4     2     8 1   
     5     2    15 1   
     6     3     4 1   
     7     3     5 1   
     8     3     9 1   
     9     4    10 1   
    10     4    11 1   
    11     4    12 1   
    12     5     6 1   
    13     6    13 1   
    14     6    14 1   
    15     6    16 1   
@<TRIPOS>SUBSTRUCTURE
     1 66N         1 TEMP              0 ****  ****    0 ROOT
