@<TRIPOS>MOLECULE
molecule
   46    49     1     0     0
SMALL
bcc


@<TRIPOS>ATOM
      1 C2           0.0000     0.0000     0.0000 cc         1 66P       0.311000
      2 C3           1.4080     0.0000     0.0000 cc         1 66P      -0.311000
      3 N4          -2.9370    -0.1100     0.2310 nc         1 66P      -0.718100
      4 C5           0.0130     0.1290    -2.4600 c3         1 66P       0.222500
      5 C7          -2.1340    -0.1950    -3.6970 c3         1 66P      -0.105900
      6 C9          -0.7260    -2.1710    -3.0980 c3         1 66P      -0.105900
      7 C10          0.4840    -1.2530    -2.9160 c3         1 66P      -0.086400
      8 C11         -2.1470    -0.0000     1.2750 cd         1 66P       0.556100
      9 C12         -4.2290     0.0700     2.0330 ca         1 66P      -0.085200
     10 C13         -4.2310    -0.0740     0.6340 ca         1 66P       0.094400
     11 C15         -6.6320    -0.0790     0.6550 ca         1 66P      -0.128000
     12 C            0.0820    -0.0010     2.4200 c          1 66P       0.723700
     13 C1          -0.6760    -0.0010     1.2290 cd         1 66P      -0.379800
     14 N1          -0.7010     0.0070    -1.1870 nu         1 66P      -0.800000
     15 C8          -1.6620    -1.5770    -4.1530 c3         1 66P       0.073500
     16 N2          -2.8240    -2.4580    -4.3280 nz         1 66P      -0.865600
     17 C6          -0.9220     0.7230    -3.5150 c3         1 66P      -0.086400
     18 C4           2.0820     0.0000     1.1710 cd         1 66P       0.066600
     19 N            1.4270    -0.0020     2.3620 ns         1 66P      -0.410100
     20 C14         -5.4500    -0.1460    -0.0480 ca         1 66P      -0.108000
     21 C16         -6.6240     0.0610     2.0350 ca         1 66P      -0.116000
     22 C17         -5.4300     0.1370     2.7230 ca         1 66P      -0.108000
     23 N3          -2.9000     0.1130     2.4150 na         1 66P      -0.235300
     24 H1           1.9500     0.0010    -0.9380 ha         1 66P       0.149000
     25 H3           0.8710     0.7780    -2.3360 h1         1 66P       0.086700
     26 H4          -2.5390    -0.4200    -2.7180 hc         1 66P       0.077200
     27 H5          -2.8750     0.2250    -4.3660 hc         1 66P       0.077200
     28 H6          -0.3910    -3.1480    -3.4230 hc         1 66P       0.077200
     29 H7          -1.2550    -2.2590    -2.1560 hc         1 66P       0.077200
     30 H8           1.0110    -1.1610    -3.8580 hc         1 66P       0.075950
     31 H9           1.1450    -1.6720    -2.1670 hc         1 66P       0.075950
     32 H10         -7.5750    -0.1370     0.1260 ha         1 66P       0.134000
     33 H12         -1.7020    -0.0280    -1.1770 hn         1 66P       0.494800
     34 H13         -1.1300    -1.4830    -5.0920 hx         1 66P       0.104700
     35 H14         -2.3750    -2.4100    -5.2210 hn         1 66P       0.478467
     36 H15         -2.7480    -3.3460    -3.8700 hn         1 66P       0.478467
     37 H17         -1.2580     1.7000    -3.1900 hc         1 66P       0.075950
     38 H18         -0.3930     0.8120    -4.4560 hc         1 66P       0.075950
     39 H19          3.1650    -0.0000     1.1610 h4         1 66P       0.166000
     40 H20         -5.4640    -0.2560    -1.1250 ha         1 66P       0.111000
     41 H21         -7.5600     0.1130     2.5760 ha         1 66P       0.143000
     42 H22         -5.4310     0.2460     3.8000 ha         1 66P       0.140000
     43 H2           1.9550    -0.0020     3.2130 hn         1 66P       0.351500
     44 H11         -2.5540     0.2100     3.3490 hn         1 66P       0.344700
     45 O           -0.4810    -0.0020     3.5030 o          1 66P      -0.670500
     46 H23         -3.7100    -1.9960    -4.2750 hn         1 66P       0.478467
@<TRIPOS>BOND
     1    21    11 ar
     2    21    22 ar
     3    11    20 ar
     4    22     9 ar
     5    20    10 ar
     6     9    10 ar
     7     9    23 1
     8    10     3 1
     9    23     8 1
    10     3     8 2
    11     8    13 1
    12    45    12 2
    13    13    12 1
    14    13     1 2
    15    12    19 1
    16     7     6 1
    17     7     4 1
    18     6    15 1
    19    14     1 1
    20    14     4 1
    21     1     2 1
    22    19    18 1
    23     4    17 1
    24     2    18 2
    25    15    16 1
    26    15     5 1
    27    17     5 1
    28     2    24 1
    29     4    25 1
    30     5    26 1
    31     5    27 1
    32     6    28 1
    33     6    29 1
    34     7    30 1
    35     7    31 1
    36    11    32 1
    37    14    33 1
    38    15    34 1
    39    16    35 1
    40    16    36 1
    41    17    37 1
    42    17    38 1
    43    18    39 1
    44    20    40 1
    45    21    41 1
    46    22    42 1
    47    19    43 1
    48    23    44 1
    49    46    16 1
@<TRIPOS>SUBSTRUCTURE
     1 66P         1 TEMP              0 ****  ****    0 ROOT
