@<TRIPOS>MOLECULE
66R
   68    73     1     0     0
SMALL
bcc


@<TRIPOS>ATOM
      1 C01          0.0000     0.0000     0.0000 ca         1 66R      -0.110000
      2 C02          1.3880     0.0000     0.0000 ca         1 66R      -0.010400
      3 C03          2.0810     0.0000     1.2070 ca         1 66R       0.132900
      4 C04          1.3840     0.0010     2.4010 ca         1 66R      -0.137000
      5 C05          0.0010     0.0010     2.3950 ca         1 66R      -0.083000
      6 C06         -0.6900     0.0010     1.1980 ca         1 66R      -0.109000
      7 F07          3.4320    -0.0010     1.2110 f          1 66R      -0.119900
      8 N08          2.0890    -0.0020    -1.2100 nh         1 66R      -0.398000
      9 C09          1.7590    -1.1900    -2.0090 c3         1 66R       0.148800
     10 C10          2.6020    -1.1950    -3.2850 c3         1 66R       0.148300
     11 N11          2.3430     0.0360    -4.0450 n3         1 66R      -0.538600
     12 C12          2.6730     1.2240    -3.2470 c3         1 66R       0.148300
     13 C13          1.8280     1.2290    -1.9700 c3         1 66R       0.148800
     14 C14          3.0780     0.0350    -5.3170 c3         1 66R       0.228100
     15 C15          2.6050     1.1800    -6.1730 ca         1 66R      -0.151300
     16 C16          1.3760     1.1070    -6.8130 ca         1 66R       0.153100
     17 C17          0.9420     2.1630    -7.6000 ca         1 66R      -0.227000
     18 C18          1.7340     3.2850    -7.7450 ca         1 66R      -0.032000
     19 C19          2.9590     3.3570    -7.1070 ca         1 66R      -0.115300
     20 C20          3.3910     2.3070    -6.3170 ca         1 66R      -0.064000
     21 C21          3.8210     4.5820    -7.2670 c3         1 66R       0.215000
     22 C22          3.3180     5.6790    -6.3590 cc         1 66R      -0.237300
     23 C23          3.1990     6.9670    -6.7550 cd         1 66R      -0.105400
     24 C24          3.5570     7.4480    -8.1380 c3         1 66R       0.086800
     25 C25          4.4070     6.3630    -8.8120 c3         1 66R       0.011500
     26 N26          3.7530     5.0550    -8.6590 n7         1 66R      -0.581200
     27 C27          5.7680     6.3190    -8.1670 c          1 66R       0.964600
     28 O28          6.2530     5.2580    -7.8520 o          1 66R      -0.889300
     29 O29          6.4420     7.4580    -7.9420 o          1 66R      -0.889300
     30 C30          2.6880     7.7140    -5.6270 ca         1 66R      -0.070800
     31 C31          2.5290     6.7750    -4.5760 ca         1 66R      -0.227200
     32 N32          2.9190     5.5560    -5.0550 na         1 66R       0.372600
     33 C33          2.0480     7.1760    -3.3320 ca         1 66R      -0.123000
     34 C34          1.7390     8.5170    -3.1820 ca         1 66R      -0.116000
     35 C35          1.8960     9.4310    -4.2110 ca         1 66R      -0.179000
     36 C36          2.3670     9.0640    -5.4470 ca         1 66R      -0.027000
     37 O37          0.5980     0.0020    -6.6690 os         1 66R      -0.302900
     38 C38         -0.6540    -0.0050    -7.3570 c3         1 66R       0.239700
     39 H1          -0.5420     0.0000    -0.9380 ha         1 66R       0.121000
     40 H2           1.9210     0.0010     3.3410 ha         1 66R       0.116000
     41 H3          -0.5430     0.0010     3.3320 ha         1 66R       0.102000
     42 H4          -1.7730     0.0010     1.1980 ha         1 66R       0.104000
     43 H5           1.9730    -2.0820    -1.4330 h1         1 66R       0.015700
     44 H6           0.7080    -1.1670    -2.2720 h1         1 66R       0.015700
     45 H7           3.6520    -1.2410    -3.0220 h1         1 66R       0.018950
     46 H8           2.3370    -2.0540    -3.8890 h1         1 66R       0.018950
     47 H10          3.7230     1.2010    -2.9840 h1         1 66R       0.018950
     48 H11          2.4590     2.1160    -3.8240 h1         1 66R       0.018950
     49 H12          2.0930     2.0880    -1.3660 h1         1 66R       0.015700
     50 H13          0.7780     1.2750    -2.2330 h1         1 66R       0.015700
     51 H14          4.1380     0.1450    -5.1210 h1         1 66R       0.013200
     52 H15          2.9020    -0.9000    -5.8350 h1         1 66R       0.013200
     53 H16         -0.0170     2.1080    -8.1010 ha         1 66R       0.113000
     54 H17          1.3970     4.1090    -8.3620 ha         1 66R       0.126000
     55 H18          4.3500     2.3640    -5.8170 ha         1 66R       0.117000
     56 H19          4.8470     4.3460    -7.0150 h1         1 66R       0.112700
     57 H20          2.6530     7.6130    -8.7130 hc         1 66R       0.019700
     58 H21          4.1260     8.3680    -8.0690 hc         1 66R       0.019700
     59 H22          4.5100     6.5910    -9.8660 h1         1 66R       0.024700
     60 H23          4.1960     4.3880    -9.2600 hn         1 66R       0.255800
     61 H26          2.9150     4.7030    -4.5320 hn         1 66R       0.104700
     62 H27          1.8950     6.5540    -2.4580 ha         1 66R       0.095000
     63 H28          1.3600     8.8720    -2.2310 ha         1 66R       0.081000
     64 H29          1.6360    10.4650    -4.0190 ha         1 66R       0.086000
     65 H30          2.4120     9.9060    -6.1270 ha         1 66R       0.102000
     66 H31         -0.4820     0.0970    -8.4210 h1         1 66R      -0.007633
     67 H32         -1.2620     0.8210    -7.0080 h1         1 66R      -0.007633
     68 H33         -1.1680    -0.9390    -7.1620 h1         1 66R      -0.007633
@<TRIPOS>BOND
     1     1     2 ar  
     2     1     6 ar  
     3     1    39 1   
     4     2     3 ar  
     5     2     8 1   
     6     3     4 ar  
     7     3     7 1   
     8     4     5 ar  
     9     4    40 1   
    10     5     6 ar  
    11     5    41 1   
    12     6    42 1   
    13     8     9 1   
    14     8    13 1   
    15     9    10 1   
    16     9    43 1   
    17     9    44 1   
    18    10    11 1   
    19    10    45 1   
    20    10    46 1   
    21    11    12 1   
    22    11    14 1   
    23    12    13 1   
    24    12    47 1   
    25    12    48 1   
    26    13    49 1   
    27    13    50 1   
    28    14    15 1   
    29    14    51 1   
    30    14    52 1   
    31    15    16 ar  
    32    15    20 ar  
    33    16    17 ar  
    34    16    37 1   
    35    17    18 ar  
    36    17    53 1   
    37    18    19 ar  
    38    18    54 1   
    39    19    20 ar  
    40    19    21 1   
    41    20    55 1   
    42    21    22 1   
    43    21    26 1   
    44    21    56 1   
    45    22    23 2   
    46    22    32 1   
    47    23    24 1   
    48    23    30 1   
    49    24    25 1   
    50    24    57 1   
    51    24    58 1   
    52    25    26 1   
    53    25    27 1   
    54    25    59 1   
    55    26    60 1   
    56    27    28 1   
    57    27    29 1   
    58    30    31 ar  
    59    30    36 ar  
    60    31    32 1   
    61    31    33 ar  
    62    32    61 1   
    63    33    34 ar  
    64    33    62 1   
    65    34    35 ar  
    66    34    63 1   
    67    35    36 ar  
    68    35    64 1   
    69    36    65 1   
    70    37    38 1   
    71    38    66 1   
    72    38    67 1   
    73    38    68 1   
@<TRIPOS>SUBSTRUCTURE
     1 66R         1 TEMP              0 ****  ****    0 ROOT
