@<TRIPOS>MOLECULE
molecule
   68    73     1     0     0
SMALL
bcc


@<TRIPOS>ATOM
      1 C01          0.0000     0.0000     0.0000 ca         1 66R      -0.136000
      2 C02          1.3880     0.0000     0.0000 ca         1 66R       0.052600
      3 C03          2.0810     0.0000     1.2070 ca         1 66R       0.157900
      4 C04          1.3840     0.0010     2.4010 ca         1 66R      -0.173000
      5 C05          0.0010     0.0010     2.3950 ca         1 66R      -0.112000
      6 C06         -0.6900     0.0010     1.1980 ca         1 66R      -0.142000
      7 F07          3.4320    -0.0010     1.2110 f          1 66R      -0.126900
      8 N08          2.0890    -0.0020    -1.2100 nh         1 66R      -0.614000
      9 C09          1.7590    -1.1900    -2.0090 c3         1 66R       0.170300
     10 C10          2.6020    -1.1950    -3.2850 c3         1 66R       0.163300
     11 N11          2.3430     0.0360    -4.0450 n3         1 66R      -0.724600
     12 C12          2.6730     1.2240    -3.2470 c3         1 66R       0.163300
     13 C13          1.8280     1.2290    -1.9700 c3         1 66R       0.170300
     14 C14          3.0780     0.0350    -5.3170 c3         1 66R       0.224100
     15 C15          2.6050     1.1800    -6.1730 ca         1 66R      -0.132300
     16 C16          1.3760     1.1070    -6.8130 ca         1 66R       0.145100
     17 C17          0.9420     2.1630    -7.6000 ca         1 66R      -0.237000
     18 C18          1.7340     3.2850    -7.7450 ca         1 66R      -0.057000
     19 C19          2.9590     3.3570    -7.1070 ca         1 66R      -0.107300
     20 C20          3.3910     2.3070    -6.3170 ca         1 66R      -0.096000
     21 C21          3.8210     4.5820    -7.2670 c3         1 66R       0.257000
     22 C22          3.3180     5.6790    -6.3590 cc         1 66R      -0.037300
     23 C23          3.1990     6.9670    -6.7550 cd         1 66R      -0.112400
     24 C24          3.5570     7.4480    -8.1380 c3         1 66R       0.021800
     25 C25          4.4070     6.3630    -8.8120 c3         1 66R       0.053500
     26 N26          3.7530     5.0550    -8.6590 n7         1 66R      -0.813200
     27 C27          5.7680     6.3190    -8.1670 c          1 66R       0.870600
     28 O28          6.2530     5.2580    -7.8520 o          1 66R      -0.844300
     29 O29          6.4420     7.4580    -7.9420 o          1 66R      -0.844300
     30 C30          2.6880     7.7140    -5.6270 ca         1 66R      -0.071800
     31 C31          2.5290     6.7750    -4.5760 ca         1 66R      -0.035200
     32 N32          2.9190     5.5560    -5.0550 na         1 66R      -0.171400
     33 C33          2.0480     7.1760    -3.3320 ca         1 66R      -0.157000
     34 C34          1.7390     8.5170    -3.1820 ca         1 66R      -0.137000
     35 C35          1.8960     9.4310    -4.2110 ca         1 66R      -0.192000
     36 C36          2.3670     9.0640    -5.4470 ca         1 66R      -0.067000
     37 O37          0.5980     0.0020    -6.6690 os         1 66R      -0.324900
     38 C38         -0.6540    -0.0050    -7.3570 c3         1 66R       0.130700
     39 H1          -0.5420     0.0000    -0.9380 ha         1 66R       0.144000
     40 H2           1.9210     0.0010     3.3410 ha         1 66R       0.142000
     41 H3          -0.5430     0.0010     3.3320 ha         1 66R       0.130000
     42 H4          -1.7730     0.0010     1.1980 ha         1 66R       0.130000
     43 H5           1.9730    -2.0820    -1.4330 h1         1 66R       0.042450
     44 H6           0.7080    -1.1670    -2.2720 h1         1 66R       0.042450
     45 H7           3.6520    -1.2410    -3.0220 h1         1 66R       0.044700
     46 H8           2.3370    -2.0540    -3.8890 h1         1 66R       0.044700
     47 H10          3.7230     1.2010    -2.9840 h1         1 66R       0.044700
     48 H11          2.4590     2.1160    -3.8240 h1         1 66R       0.044700
     49 H12          2.0930     2.0880    -1.3660 h1         1 66R       0.042450
     50 H13          0.7780     1.2750    -2.2330 h1         1 66R       0.042450
     51 H14          4.1380     0.1450    -5.1210 h1         1 66R       0.040200
     52 H15          2.9020    -0.9000    -5.8350 h1         1 66R       0.040200
     53 H16         -0.0170     2.1080    -8.1010 ha         1 66R       0.125000
     54 H17          1.3970     4.1090    -8.3620 ha         1 66R       0.158000
     55 H18          4.3500     2.3640    -5.8170 ha         1 66R       0.142000
     56 H19          4.8470     4.3460    -7.0150 h1         1 66R       0.125700
     57 H20          2.6530     7.6130    -8.7130 hc         1 66R       0.049700
     58 H21          4.1260     8.3680    -8.0690 hc         1 66R       0.049700
     59 H22          4.5100     6.5910    -9.8660 h1         1 66R       0.053700
     60 H23          4.1960     4.3880    -9.2600 hn         1 66R       0.356800
     61 H26          2.9150     4.7030    -4.5320 hn         1 66R       0.286700
     62 H27          1.8950     6.5540    -2.4580 ha         1 66R       0.118000
     63 H28          1.3600     8.8720    -2.2310 ha         1 66R       0.105000
     64 H29          1.6360    10.4650    -4.0190 ha         1 66R       0.106000
     65 H30          2.4120     9.9060    -6.1270 ha         1 66R       0.131000
     66 H31         -0.4820     0.0970    -8.4210 h1         1 66R       0.034367
     67 H32         -1.2620     0.8210    -7.0080 h1         1 66R       0.034367
     68 H33         -1.1680    -0.9390    -7.1620 h1         1 66R       0.034367
@<TRIPOS>BOND
     1    28    27 1   
     2    36    35 ar  
     3    36    30 ar  
     4    27    29 1   
     5    27    25 1   
     6    35    34 ar  
     7    24    25 1   
     8    24    23 1   
     9    25    26 1   
    10    30    23 1   
    11    30    31 ar  
    12    23    22 2   
    13    34    33 ar  
    14    26    21 1   
    15    31    33 ar  
    16    31    32 1   
    17    22    32 1   
    18    22    21 1   
    19    21    19 1   
    20    18    19 ar  
    21    18    17 ar  
    22    19    20 ar  
    23    17    16 ar  
    24    20    15 ar  
    25    16    15 ar  
    26    16    37 1   
    27    15    14 1   
    28    37    38 1   
    29    14    11 1   
    30    11    10 1   
    31    11    12 1   
    32    10     9 1   
    33    12    13 1   
    34     9     8 1   
    35    13     8 1   
    36     8     2 1   
    37     2     1 ar  
    38     2     3 ar  
    39     1     6 ar  
    40     7     3 1   
    41     3     4 ar  
    42     6     5 ar  
    43     4     5 ar  
    44     1    39 1   
    45     4    40 1   
    46     5    41 1   
    47     6    42 1   
    48     9    43 1   
    49     9    44 1   
    50    10    45 1   
    51    10    46 1   
    52    12    47 1   
    53    12    48 1   
    54    13    49 1   
    55    13    50 1   
    56    14    51 1   
    57    14    52 1   
    58    17    53 1   
    59    18    54 1   
    60    20    55 1   
    61    21    56 1   
    62    24    57 1   
    63    24    58 1   
    64    25    59 1   
    65    26    60 1   
    66    32    61 1   
    67    33    62 1   
    68    34    63 1   
    69    35    64 1   
    70    36    65 1   
    71    38    66 1   
    72    38    67 1   
    73    38    68 1   
@<TRIPOS>SUBSTRUCTURE
     1 66R         1 TEMP              0 ****  ****    0 ROOT
