@<TRIPOS>MOLECULE
molecule
   66    65     1     0     0
SMALL
bcc


@<TRIPOS>ATOM
      1 P24          0.0000     0.0000     0.0000 p5         1 66S       1.179900
      2 O26          1.4800     0.0000     0.0000 o          1 66S      -0.909500
      3 O23         -0.5360     0.0000     1.5180 o          1 66S      -0.909500
      4 O27         -0.5370     1.3160    -0.7580 os         1 66S      -0.585200
      5 C28         -0.1480     2.6400    -0.3900 c3         1 66S       0.230400
      6 C29         -0.8370     3.6490    -1.3090 c3         1 66S      -0.072000
      7 C30         -0.4250     3.3820    -2.7590 c3         1 66S      -0.066600
      8 C31         -2.3550     3.5080    -1.1760 c3         1 66S      -0.066600
      9 C32         -0.4200     5.0670    -0.9150 c3         1 66S       0.088100
     10 O33         -0.9210     5.3640     0.3900 oh         1 66S      -0.550800
     11 C34          1.0830     5.1660    -0.9090 c          1 66S       0.647100
     12 O35          1.6780     5.3160     0.1370 o          1 66S      -0.585100
     13 N36          1.7670     5.0890    -2.0680 ns         1 66S      -0.601900
     14 C37          3.2320     5.0880    -2.0560 c3         1 66S       0.129000
     15 C38          3.7540     4.9920    -3.4910 c3         1 66S      -0.174400
     16 C39          5.2610     4.9910    -3.4770 c          1 66S       0.665100
     17 O40          5.8590     5.0610    -2.4240 o          1 66S      -0.590100
     18 N41          5.9450     4.9140    -4.6370 ns         1 66S      -0.599900
     19 C42          7.4100     4.9130    -4.6240 c3         1 66S       0.127000
     20 C43          7.9320     4.8170    -6.0590 c3         1 66S      -0.009300
     21 S1           9.7430     4.8170    -6.0430 ss         1 66S      -0.251700
     22 C1          10.0550     4.7050    -7.7230 c          1 66S       0.563700
     23 O1           9.1310     4.6540    -8.5090 o          1 66S      -0.540100
     24 C2          11.4740     4.6700    -8.2250 c3         1 66S      -0.163400
     25 C3          11.4740     4.5690    -9.7510 c3         1 66S      -0.071400
     26 C4          12.9160     4.5330   -10.2610 c3         1 66S      -0.083400
     27 C5          12.9150     4.4330   -11.7880 c3         1 66S      -0.080400
     28 C6          14.3570     4.3970   -12.2980 c3         1 66S      -0.082400
     29 C7          14.3560     4.2960   -13.8250 c3         1 66S      -0.084400
     30 C8          15.7980     4.2610   -14.3340 c3         1 66S      -0.092100
     31 H28          0.9270     2.7410    -0.4850 h1         1 66S       0.029700
     32 H28A        -0.4380     2.8300     0.6360 h1         1 66S       0.029700
     33 H30         -1.0830     2.6380    -3.1900 hc         1 66S       0.028200
     34 H30A         0.5950     3.0200    -2.7840 hc         1 66S       0.028200
     35 H30B        -0.4960     4.3000    -3.3300 hc         1 66S       0.028200
     36 H31         -2.8400     4.3530    -1.6490 hc         1 66S       0.028200
     37 H31A        -2.6240     3.4780    -0.1270 hc         1 66S       0.028200
     38 H31B        -2.6760     2.5920    -1.6570 hc         1 66S       0.028200
     39 H32         -0.8270     5.7750    -1.6280 h1         1 66S       0.006700
     40 HO33        -1.2020     6.2640     0.4220 ho         1 66S       0.373000
     41 HN36         1.2750     5.0950    -2.9400 hn         1 66S       0.306500
     42 H37          3.5880     4.2380    -1.4860 h1         1 66S       0.071700
     43 H37A         3.5910     6.0030    -1.6010 h1         1 66S       0.071700
     44 H38          3.3990     5.8420    -4.0620 hc         1 66S       0.061700
     45 H38A         3.3970     4.0760    -3.9460 hc         1 66S       0.061700
     46 HN41         5.4520     4.8820    -5.5070 hn         1 66S       0.311500
     47 H42          7.7660     4.0630    -4.0530 h1         1 66S       0.063700
     48 H42A         7.7690     5.8280    -4.1700 h1         1 66S       0.063700
     49 H43          7.5750     3.9010    -6.5140 h1         1 66S       0.078700
     50 H43A         7.5770     5.6660    -6.6300 h1         1 66S       0.078700
     51 H2          11.9840     3.8110    -7.8060 hc         1 66S       0.070700
     52 H2A         11.9860     5.5760    -7.9230 hc         1 66S       0.070700
     53 H3          10.9620     3.6630   -10.0530 hc         1 66S       0.056700
     54 H3A         10.9640     5.4280   -10.1700 hc         1 66S       0.056700
     55 H4          13.4250     3.6730    -9.8430 hc         1 66S       0.039200
     56 H4A         13.4280     5.4380    -9.9590 hc         1 66S       0.039200
     57 H5          12.4030     3.5280   -12.0900 hc         1 66S       0.043700
     58 H5A         12.4060     5.2930   -12.2060 hc         1 66S       0.043700
     59 H6          14.8670     3.5380   -11.8790 hc         1 66S       0.039700
     60 H6A         14.8690     5.3030   -11.9960 hc         1 66S       0.039700
     61 H7          13.8440     3.3910   -14.1270 hc         1 66S       0.040700
     62 H7A         13.8470     5.1560   -14.2430 hc         1 66S       0.040700
     63 H8          16.3060     3.3970   -13.9210 hc         1 66S       0.030700
     64 H8A         16.3120     5.1630   -14.0270 hc         1 66S       0.030700
     65 H8B         15.7980     4.1960   -15.4160 hc         1 66S       0.030700
     66 OP3         -0.5380    -1.3150    -0.7570 o          1 66S      -0.909500
@<TRIPOS>BOND
     1     1     2 1   
     2     1     3 1   
     3     1     4 1   
     4     4     5 1   
     5     5     6 1   
     6     6     7 1   
     7     6     8 1   
     8     6     9 1   
     9     9    10 1   
    10     9    11 1   
    11    11    12 2   
    12    11    13 1   
    13    13    14 1   
    14    14    15 1   
    15    15    16 1   
    16    16    17 2   
    17    16    18 1   
    18    18    19 1   
    19    19    20 1   
    20    20    21 1   
    21    21    22 1   
    22    22    23 2   
    23    22    24 1   
    24    24    25 1   
    25    25    26 1   
    26    26    27 1   
    27    27    28 1   
    28    28    29 1   
    29    29    30 1   
    30     5    31 1   
    31     5    32 1   
    32     7    33 1   
    33     7    34 1   
    34     7    35 1   
    35     8    36 1   
    36     8    37 1   
    37     8    38 1   
    38     9    39 1   
    39    10    40 1   
    40    13    41 1   
    41    14    42 1   
    42    14    43 1   
    43    15    44 1   
    44    15    45 1   
    45    18    46 1   
    46    19    47 1   
    47    19    48 1   
    48    20    49 1   
    49    20    50 1   
    50    24    51 1   
    51    24    52 1   
    52    25    53 1   
    53    25    54 1   
    54    26    55 1   
    55    26    56 1   
    56    27    57 1   
    57    27    58 1   
    58    28    59 1   
    59    28    60 1   
    60    29    61 1   
    61    29    62 1   
    62    30    63 1   
    63    30    64 1   
    64    30    65 1   
    65     1    66 1   
@<TRIPOS>SUBSTRUCTURE
     1 66S         1 TEMP              0 ****  ****    0 ROOT
