@<TRIPOS>MOLECULE
66T
   67    70     1     0     0
SMALL
bcc


@<TRIPOS>ATOM
      1 C            0.0000     0.0000     0.0000 c3         1 66T       0.006900
      2 N            3.5090    -1.2690    -0.6830 nh         1 66T      -0.358000
      3 O            6.7500    -5.8470    -3.6230 o          1 66T      -0.636100
      4 C1           1.5300     0.0000     0.0000 c3         1 66T       0.117500
      5 N1           2.0200     0.0000     1.3850 n7         1 66T      -0.583200
      6 O1           9.6390   -14.1850    -9.2970 os         1 66T      -0.306900
      7 C2           2.0400    -1.2510    -0.7190 c3         1 66T       0.135300
      8 N2           4.7040    -6.5370    -4.1470 ns         1 66T      -0.014100
      9 O2          11.8210   -13.0870    -5.2180 os         1 66T      -0.306900
     10 C3           4.0000    -1.2680     0.7020 c3         1 66T       0.135300
     11 N3           4.8880    -9.6530    -6.2180 nc         1 66T      -0.658800
     12 C4           3.4890    -0.0170     1.4210 c3         1 66T       0.117500
     13 N4           4.0410    -8.7130    -5.6190 na         1 66T       0.470400
     14 C5           3.9650    -0.0340     2.8750 c3         1 66T       0.006900
     15 C6           4.0120    -2.3550    -1.3890 ca         1 66T       0.054600
     16 C7           5.3870    -2.5520    -1.4760 ca         1 66T      -0.163500
     17 C8           5.8890    -3.6260    -2.1740 ca         1 66T      -0.027000
     18 C9           5.0150    -4.5220    -2.7970 ca         1 66T      -0.189600
     19 C10          3.6340    -4.3220    -2.7090 ca         1 66T      -0.027000
     20 C11          3.1390    -3.2490    -2.0040 ca         1 66T      -0.163500
     21 C12          5.5490    -5.6750    -3.5470 c          1 66T       0.624700
     22 C13          4.8190    -7.7980    -4.9850 cc         1 66T      -0.268700
     23 C14          6.1170    -8.1580    -5.1820 cd         1 66T      -0.348300
     24 C15          6.1250    -9.3210    -5.9560 cd         1 66T       0.373600
     25 C16          7.3530   -10.0670    -6.4120 c3         1 66T      -0.032700
     26 C17          7.2570   -11.5280    -5.9680 c3         1 66T       0.024900
     27 C18          8.4840   -12.2730    -6.4240 ca         1 66T      -0.011300
     28 C19          9.5960   -12.3380    -5.6050 ca         1 66T      -0.182500
     29 C20         10.7280   -13.0240    -6.0220 ca         1 66T       0.193100
     30 C21         10.7430   -13.6440    -7.2620 ca         1 66T      -0.328000
     31 C22          9.6270   -13.5780    -8.0820 ca         1 66T       0.193100
     32 C23          8.4960   -12.8950    -7.6570 ca         1 66T      -0.182500
     33 C24         10.8350   -14.8740    -9.6670 c3         1 66T       0.244700
     34 C25         12.9500   -13.8090    -5.7120 c3         1 66T       0.244700
     35 H1           1.8960     0.8820    -0.5110 h1         1 66T       0.015700
     36 H4           3.8710     0.8650     0.9220 h1         1 66T       0.015700
     37 HN4          3.0400    -8.7140    -5.6530 hn         1 66T       0.139700
     38 H           -0.3610     0.9210     0.4420 hc         1 66T       0.008200
     39 HA          -0.3610    -0.8430     0.5770 hc         1 66T       0.008200
     40 HB          -0.3610    -0.0780    -1.0180 hc         1 66T       0.008200
     41 H2           1.7050    -1.2370    -1.7490 h1         1 66T       0.027950
     42 H2A          1.6570    -2.1340    -0.2210 h1         1 66T       0.027950
     43 H3           5.0830    -1.2650     0.7000 h1         1 66T       0.027950
     44 H3A          3.6360    -2.1510     1.2130 h1         1 66T       0.027950
     45 HN1          1.6840     0.8160     1.8580 hn         1 66T       0.260800
     46 H5           3.5210    -0.8770     3.3900 hc         1 66T       0.008200
     47 H5A          5.0440    -0.1220     2.9010 hc         1 66T       0.008200
     48 H5B          3.6660     0.8860     3.3630 hc         1 66T       0.008200
     49 H7           6.0640    -1.8570    -0.9930 ha         1 66T       0.123500
     50 H8           6.9590    -3.7780    -2.2400 ha         1 66T       0.113500
     51 H10          2.9540    -5.0160    -3.1880 ha         1 66T       0.113500
     52 H11          2.0690    -3.0930    -1.9350 ha         1 66T       0.123500
     53 HN2          3.7170    -6.3760    -4.1130 hn         1 66T       0.125500
     54 H14          6.9880    -7.6360    -4.8050 ha         1 66T       0.181000
     55 H16          7.4220   -10.0210    -7.4920 hc         1 66T       0.026200
     56 H16A         8.2340    -9.6130    -5.9750 hc         1 66T       0.026200
     57 H17          7.1880   -11.5730    -4.8880 hc         1 66T       0.028200
     58 H17A         6.3760   -11.9810    -6.4060 hc         1 66T       0.028200
     59 H19          9.5830   -11.8550    -4.6350 ha         1 66T       0.123500
     60 H21         11.6460   -14.1290    -7.6140 ha         1 66T       0.137000
     61 H23          7.6200   -12.8520    -8.2930 ha         1 66T       0.123500
     62 H24         10.7080   -15.3180   -10.6470 h1         1 66T      -0.003967
     63 H24A        11.0420   -15.6520    -8.9420 h1         1 66T      -0.003967
     64 H24B        11.6620   -14.1750    -9.6930 h1         1 66T      -0.003967
     65 H25         13.3000   -13.3490    -6.6280 h1         1 66T      -0.003967
     66 H25A        13.7420   -13.7910    -4.9730 h1         1 66T      -0.003967
     67 H25B        12.6640   -14.8350    -5.9090 h1         1 66T      -0.003967
@<TRIPOS>BOND
     1     1     4 1   
     2     1    38 1   
     3     1    39 1   
     4     1    40 1   
     5     2     7 1   
     6     2    10 1   
     7     2    15 1   
     8     3    21 2   
     9     4     5 1   
    10     4     7 1   
    11     4    35 1   
    12     5    12 1   
    13     5    45 1   
    14     6    31 1   
    15     6    33 1   
    16     7    41 1   
    17     7    42 1   
    18     8    21 1   
    19     8    22 1   
    20     8    53 1   
    21     9    29 1   
    22     9    34 1   
    23    10    12 1   
    24    10    43 1   
    25    10    44 1   
    26    11    13 1   
    27    11    24 2   
    28    12    14 1   
    29    12    36 1   
    30    13    22 1   
    31    13    37 1   
    32    14    46 1   
    33    14    47 1   
    34    14    48 1   
    35    15    16 ar  
    36    15    20 ar  
    37    16    17 ar  
    38    16    49 1   
    39    17    18 ar  
    40    17    50 1   
    41    18    19 ar  
    42    18    21 1   
    43    19    20 ar  
    44    19    51 1   
    45    20    52 1   
    46    22    23 2   
    47    23    24 1   
    48    23    54 1   
    49    24    25 1   
    50    25    26 1   
    51    25    55 1   
    52    25    56 1   
    53    26    27 1   
    54    26    57 1   
    55    26    58 1   
    56    27    28 ar  
    57    27    32 ar  
    58    28    29 ar  
    59    28    59 1   
    60    29    30 ar  
    61    30    31 ar  
    62    30    60 1   
    63    31    32 ar  
    64    32    61 1   
    65    33    62 1   
    66    33    63 1   
    67    33    64 1   
    68    34    65 1   
    69    34    66 1   
    70    34    67 1   
@<TRIPOS>SUBSTRUCTURE
     1 66T         1 TEMP              0 ****  ****    0 ROOT
