@<TRIPOS>MOLECULE
molecule
   55    55     1     0     0
SMALL
bcc


@<TRIPOS>ATOM
      1 C1           0.0000     0.0000     0.0000 c3         1 66V       0.148100
      2 C2           1.5300     0.0000     0.0000 c3         1 66V       0.107100
      3 C3           2.0410     0.0000     1.4420 c3         1 66V       0.110100
      4 C4           1.5310     1.2480     2.1640 c3         1 66V       0.155100
      5 C5           0.0010     1.2480     2.1650 c3         1 66V      -0.083700
      6 C6          -0.5090     1.2490     0.7230 c3         1 66V       0.194500
      7 C7          -0.5090     2.4970     2.8870 c3         1 66V       0.151400
      8 N8          -1.9790     1.2480     0.7230 n7         1 66V      -0.912200
      9 C9          -2.5060     1.8280    -0.5200 c3         1 66V       0.212800
     10 C10         -4.0360     1.8100    -0.4820 c3         1 66V      -0.099400
     11 C11         -4.5840     2.4150    -1.7750 c3         1 66V      -0.074400
     12 C12         -6.1140     2.3970    -1.7380 c3         1 66V      -0.081400
     13 C13         -6.6630     3.0010    -3.0320 c3         1 66V      -0.077400
     14 C14         -8.1930     2.9840    -2.9950 c3         1 66V      -0.081400
     15 C15         -8.7410     3.5870    -4.2880 c3         1 66V      -0.096400
     16 C16        -10.2710     3.5700    -4.2510 c3         1 66V       0.168800
     17 N17        -10.7970     4.1480    -5.4900 n2         1 66V      -0.233200
     18 N18        -11.4520     3.5330    -6.1640 n1         1 66V       0.444000
     19 N19        -12.1100     2.9320    -6.8500 n2         1 66V      -0.428400
     20 O20          1.9970    -1.2230    -0.6370 oh         1 66V      -0.613800
     21 O21          3.4700     0.0000     1.4410 oh         1 66V      -0.604800
     22 O22          2.0080     1.2480     3.5110 oh         1 66V      -0.574800
     23 O23          0.1900     2.6600     4.0920 oh         1 66V      -0.573800
     24 H1          -0.3590    -0.8830     0.5140 h1         1 66V       0.058700
     25 H3           1.9420     0.8540    -0.5240 h1         1 66V       0.060700
     26 H4           1.6770    -0.8840     1.9510 h1         1 66V       0.059700
     27 H5           1.8890     2.1320     1.6500 h1         1 66V       0.043700
     28 H6          -0.3580     0.3610     2.6720 hc         1 66V       0.081700
     29 H7          -0.1440     2.1330     0.2130 h1         1 66V       0.044700
     30 H8          -0.3540     3.3660     2.2590 h1         1 66V       0.012200
     31 H9          -1.5670     2.3870     3.0960 h1         1 66V       0.012200
     32 H10         -2.3120     1.4520     1.6450 hn         1 66V       0.398800
     33 H12         -2.1520     2.8460    -0.6220 h1         1 66V       0.044700
     34 H13         -2.1660     1.2410    -1.3640 h1         1 66V       0.044700
     35 H14         -4.3760     0.8740    -0.0560 hc         1 66V       0.049200
     36 H15         -4.3910     2.6340     0.1250 hc         1 66V       0.049200
     37 H16         -4.2680     1.8130    -2.6190 hc         1 66V       0.045700
     38 H17         -4.2080     3.4240    -1.8900 hc         1 66V       0.045700
     39 H18         -6.4610     2.9990    -0.9070 hc         1 66V       0.047200
     40 H19         -6.4600     1.3780    -1.6160 hc         1 66V       0.047200
     41 H20         -6.3440     4.0330    -3.1140 hc         1 66V       0.052700
     42 H21         -6.2900     2.4400    -3.8800 hc         1 66V       0.052700
     43 H22         -8.5380     1.9680    -2.8450 hc         1 66V       0.054700
     44 H23         -8.5410     3.6080    -2.1800 hc         1 66V       0.054700
     45 H24         -8.4510     2.9670    -5.1280 hc         1 66V       0.078700
     46 H25         -8.3400     4.5850    -4.4200 hc         1 66V       0.078700
     47 H26        -10.6280     4.4210    -3.6850 h1         1 66V       0.123200
     48 H27        -10.6100     2.6550    -3.7800 h1         1 66V       0.123200
     49 H28        -12.3440     1.9870    -6.6190 hn         1 66V       0.638400
     50 H29          2.5370    -1.0050    -1.3790 ho         1 66V       0.411000
     51 H30          3.7840    -0.7960     1.8350 ho         1 66V       0.417000
     52 H31          2.8390     1.6920     3.5500 ho         1 66V       0.411000
     53 H32         -0.2620     3.2820     4.6370 ho         1 66V       0.398000
     54 O1          -0.4770     0.0000    -1.3460 oh         1 66V      -0.608800
     55 H2          -0.6390    -0.8870    -1.6220 ho         1 66V       0.412000
@<TRIPOS>BOND
     1    20     2 1
     2     2     1 1
     3     2     3 1
     4     1     6 1
     5     8     6 1
     6     8     9 1
     7    10     9 1
     8    10    11 1
     9     6     5 1
    10    19    18 2
    11     3    21 1
    12     3     4 1
    13    12    11 1
    14    12    13 1
    15    18    17 2
    16     5     4 1
    17     5     7 1
    18     4    22 1
    19    17    16 1
    20    14    13 1
    21    14    15 1
    22    23     7 1
    23    16    15 1
    24     1    24 1
    25     2    25 1
    26     3    26 1
    27     4    27 1
    28     5    28 1
    29     6    29 1
    30     7    30 1
    31     7    31 1
    32     8    32 1
    33     9    33 1
    34     9    34 1
    35    10    35 1
    36    10    36 1
    37    11    37 1
    38    11    38 1
    39    12    39 1
    40    12    40 1
    41    13    41 1
    42    13    42 1
    43    14    43 1
    44    14    44 1
    45    15    45 1
    46    15    46 1
    47    16    47 1
    48    16    48 1
    49    19    49 1
    50    20    50 1
    51    21    51 1
    52    22    52 1
    53    23    53 1
    54     1    54 1
    55    54    55 1
@<TRIPOS>SUBSTRUCTURE
     1 66V         1 TEMP              0 ****  ****    0 ROOT
